/*---------------------------------------------------------------------------*\
  =========                 |
  \\      /  F ield         | OpenFOAM: The Open Source CFD Toolbox
   \\    /   O peration     | Website:  https://openfoam.org
    \\  /    A nd           | Version:  7
     \\/     M anipulation  |
\*---------------------------------------------------------------------------*/
Build  : 7-49b2b3b8b082
Exec   : checkMesh
Date   : Apr 24 2022
Time   : 23:00:25
Host   : "c455-004.stampede2.tacc.utexas.edu"
PID    : 149199
I/O    : uncollated
Case   : /work2/07674/bradenp/stampede2/diamond-airfoil/diamond_test
nProcs : 1
sigFpe : Enabling floating point exception trapping (FOAM_SIGFPE).
fileModificationChecking : Monitoring run-time modified files using timeStampMaster (fileModificationSkew 10)
allowSystemOperations : Allowing user-supplied system call operations

// * * * * * * * * * * * * * * * * * * * * * * * * * * * * * * * * * * * * * //
Create time

Create polyMesh for time = 0

Time = 0

Mesh stats
    points:           1760
    internal points:  0
    faces:            3280
    internal faces:   1520
    cells:            800
    faces per cell:   6
    boundary patches: 6
    point zones:      0
    face zones:       0
    cell zones:       0

Overall number of cells of each type:
    hexahedra:     800
    prisms:        0
    wedges:        0
    pyramids:      0
    tet wedges:    0
    tetrahedra:    0
    polyhedra:     0

Checking topology...
    Boundary definition OK.
    Cell to face addressing OK.
    Point usage OK.
    Upper triangular ordering OK.
    Face vertices OK.
    Number of regions: 1 (OK).

Checking patch topology for multiply connected surfaces...
    Patch               Faces    Points   Surface topology                  
    inlet               30       62       ok (non-closed singly connected)  
    outlet              30       62       ok (non-closed singly connected)  
    airfoil             40       80       ok (non-closed singly connected)  
    top                 30       62       ok (non-closed singly connected)  
    bottom              30       62       ok (non-closed singly connected)  
    defaultFaces        1600     1760     ok (non-closed singly connected)  

Checking geometry...
    Overall domain bounding box (-6 -6 -0.05) (6 6 0.05)
    Mesh has 2 geometric (non-empty/wedge) directions (1 1 0)
    Mesh has 2 solution (non-empty) directions (1 1 0)
    All edges aligned with or perpendicular to non-empty directions.
    Boundary openness (-2.14746e-18 2.01324e-18 -1.08017e-16) OK.
    Max cell openness = 1.65061e-16 OK.
    Max aspect ratio = 2.20673 OK.
    Minimum face area = 0.0304558. Maximum face area = 0.186189.  Face area magnitudes OK.
    Min volume = 0.0110074. Max volume = 0.0186189.  Total volume = 12.6.  Cell volumes OK.
    Mesh non-orthogonality Max: 33.6317 average: 14.6174
    Non-orthogonality check OK.
    Face pyramids OK.
    Max skewness = 0.716836 OK.
    Coupled point location match (average 0) OK.

Mesh OK.

End

