/*---------------------------------------------------------------------------*\
  =========                 |
  \\      /  F ield         | OpenFOAM: The Open Source CFD Toolbox
   \\    /   O peration     | Website:  https://openfoam.org
    \\  /    A nd           | Version:  7
     \\/     M anipulation  |
\*---------------------------------------------------------------------------*/
Build  : 7-49b2b3b8b082
Exec   : decomposePar
Date   : Apr 14 2022
Time   : 01:41:53
Host   : "c405-042.stampede2.tacc.utexas.edu"
PID    : 105008
I/O    : uncollated
Case   : /work2/07705/jmj3957/stampede2/COE347FinalProject/Simulations/Incompressible/diamond_test
nProcs : 1
sigFpe : Enabling floating point exception trapping (FOAM_SIGFPE).
fileModificationChecking : Monitoring run-time modified files using timeStampMaster (fileModificationSkew 10)
allowSystemOperations : Allowing user-supplied system call operations

// * * * * * * * * * * * * * * * * * * * * * * * * * * * * * * * * * * * * * //
Create time



Decomposing mesh region0

Create mesh

Calculating distribution of cells
 Foam::decompositionMethod::New 
{
    numberOfSubdomains 36;
    method          hierarchical;
    simpleCoeffs
    {
        n               ( 6 6 1 );
        delta           0.0002;
    }
    hierarchicalCoeffs
    {
        n               ( 6 6 1 );
        delta           0.0002;
        order           xyz;
    }
}

Selecting decompositionMethod hierarchical

Finished decomposition in 0.02 s

Calculating original mesh data

Distributing cells to processors

Distributing faces to processors

Distributing points to processors

Constructing processor meshes

Processor 0
    Number of cells = 333
    Number of faces shared with processor 1 = 20
    Number of faces shared with processor 6 = 23
    Number of faces shared with processor 7 = 11
    Number of processor patches = 3
    Number of processor faces = 54
    Number of boundary faces = 704

Processor 1
    Number of cells = 333
    Number of faces shared with processor 0 = 20
    Number of faces shared with processor 2 = 25
    Number of faces shared with processor 7 = 23
    Number of faces shared with processor 8 = 7
    Number of processor patches = 4
    Number of processor faces = 75
    Number of boundary faces = 679

Processor 2
    Number of cells = 333
    Number of faces shared with processor 1 = 25
    Number of faces shared with processor 3 = 22
    Number of faces shared with processor 8 = 24
    Number of processor patches = 3
    Number of processor faces = 71
    Number of boundary faces = 679

Processor 3
    Number of cells = 333
    Number of faces shared with processor 2 = 22
    Number of faces shared with processor 4 = 20
    Number of faces shared with processor 8 = 13
    Number of faces shared with processor 9 = 23
    Number of processor patches = 4
    Number of processor faces = 78
    Number of boundary faces = 678

Processor 4
    Number of cells = 333
    Number of faces shared with processor 3 = 20
    Number of faces shared with processor 5 = 14
    Number of faces shared with processor 9 = 1
    Number of faces shared with processor 10 = 16
    Number of faces shared with processor 11 = 7
    Number of processor patches = 5
    Number of processor faces = 58
    Number of boundary faces = 682

Processor 5
    Number of cells = 333
    Number of faces shared with processor 4 = 14
    Number of faces shared with processor 11 = 25
    Number of processor patches = 2
    Number of processor faces = 39
    Number of boundary faces = 703

Processor 6
    Number of cells = 333
    Number of faces shared with processor 0 = 23
    Number of faces shared with processor 7 = 13
    Number of faces shared with processor 12 = 43
    Number of faces shared with processor 13 = 13
    Number of processor patches = 4
    Number of processor faces = 92
    Number of boundary faces = 676

Processor 7
    Number of cells = 333
    Number of faces shared with processor 0 = 11
    Number of faces shared with processor 1 = 23
    Number of faces shared with processor 6 = 13
    Number of faces shared with processor 8 = 15
    Number of faces shared with processor 13 = 29
    Number of faces shared with processor 14 = 9
    Number of processor patches = 6
    Number of processor faces = 100
    Number of boundary faces = 666

Processor 8
    Number of cells = 333
    Number of faces shared with processor 1 = 7
    Number of faces shared with processor 2 = 24
    Number of faces shared with processor 3 = 13
    Number of faces shared with processor 7 = 15
    Number of faces shared with processor 9 = 9
    Number of faces shared with processor 14 = 30
    Number of processor patches = 6
    Number of processor faces = 98
    Number of boundary faces = 666

Processor 9
    Number of cells = 333
    Number of faces shared with processor 3 = 23
    Number of faces shared with processor 4 = 1
    Number of faces shared with processor 8 = 9
    Number of faces shared with processor 10 = 24
    Number of faces shared with processor 14 = 15
    Number of faces shared with processor 15 = 30
    Number of processor patches = 6
    Number of processor faces = 102
    Number of boundary faces = 666

Processor 10
    Number of cells = 333
    Number of faces shared with processor 4 = 16
    Number of faces shared with processor 9 = 24
    Number of faces shared with processor 11 = 9
    Number of faces shared with processor 15 = 2
    Number of faces shared with processor 16 = 36
    Number of faces shared with processor 17 = 7
    Number of processor patches = 6
    Number of processor faces = 94
    Number of boundary faces = 666

Processor 11
    Number of cells = 333
    Number of faces shared with processor 4 = 7
    Number of faces shared with processor 5 = 25
    Number of faces shared with processor 10 = 9
    Number of faces shared with processor 17 = 27
    Number of processor patches = 4
    Number of processor faces = 68
    Number of boundary faces = 680

Processor 12
    Number of cells = 333
    Number of faces shared with processor 6 = 43
    Number of faces shared with processor 13 = 19
    Number of faces shared with processor 18 = 51
    Number of faces shared with processor 19 = 2
    Number of processor patches = 4
    Number of processor faces = 115
    Number of boundary faces = 673

Processor 13
    Number of cells = 333
    Number of faces shared with processor 6 = 13
    Number of faces shared with processor 7 = 29
    Number of faces shared with processor 12 = 19
    Number of faces shared with processor 14 = 9
    Number of faces shared with processor 19 = 1
    Number of processor patches = 5
    Number of processor faces = 71
    Number of boundary faces = 691

Processor 14
    Number of cells = 333
    Number of faces shared with processor 7 = 9
    Number of faces shared with processor 8 = 30
    Number of faces shared with processor 9 = 15
    Number of faces shared with processor 13 = 9
    Number of faces shared with processor 15 = 7
    Number of faces shared with processor 20 = 2
    Number of processor patches = 6
    Number of processor faces = 72
    Number of boundary faces = 690

Processor 15
    Number of cells = 333
    Number of faces shared with processor 9 = 30
    Number of faces shared with processor 10 = 2
    Number of faces shared with processor 14 = 7
    Number of faces shared with processor 16 = 28
    Number of faces shared with processor 20 = 1
    Number of faces shared with processor 21 = 4
    Number of faces shared with processor 22 = 2
    Number of processor patches = 7
    Number of processor faces = 74
    Number of boundary faces = 690

Processor 16
    Number of cells = 333
    Number of faces shared with processor 10 = 36
    Number of faces shared with processor 15 = 28
    Number of faces shared with processor 17 = 7
    Number of faces shared with processor 22 = 49
    Number of processor patches = 4
    Number of processor faces = 120
    Number of boundary faces = 666

Processor 17
    Number of cells = 333
    Number of faces shared with processor 10 = 7
    Number of faces shared with processor 11 = 27
    Number of faces shared with processor 16 = 7
    Number of faces shared with processor 23 = 29
    Number of processor patches = 4
    Number of processor faces = 70
    Number of boundary faces = 678

Processor 18
    Number of cells = 333
    Number of faces shared with processor 12 = 51
    Number of faces shared with processor 19 = 21
    Number of faces shared with processor 24 = 43
    Number of processor patches = 3
    Number of processor faces = 115
    Number of boundary faces = 675

Processor 19
    Number of cells = 333
    Number of faces shared with processor 12 = 2
    Number of faces shared with processor 13 = 1
    Number of faces shared with processor 18 = 21
    Number of faces shared with processor 20 = 9
    Number of faces shared with processor 24 = 13
    Number of faces shared with processor 25 = 29
    Number of processor patches = 6
    Number of processor faces = 75
    Number of boundary faces = 693

Processor 20
    Number of cells = 333
    Number of faces shared with processor 14 = 2
    Number of faces shared with processor 15 = 1
    Number of faces shared with processor 19 = 9
    Number of faces shared with processor 21 = 8
    Number of faces shared with processor 25 = 9
    Number of faces shared with processor 26 = 29
    Number of faces shared with processor 27 = 14
    Number of processor patches = 7
    Number of processor faces = 72
    Number of boundary faces = 692

Processor 21
    Number of cells = 333
    Number of faces shared with processor 15 = 4
    Number of faces shared with processor 20 = 8
    Number of faces shared with processor 22 = 29
    Number of faces shared with processor 27 = 30
    Number of faces shared with processor 28 = 3
    Number of processor patches = 5
    Number of processor faces = 74
    Number of boundary faces = 692

Processor 22
    Number of cells = 333
    Number of faces shared with processor 15 = 2
    Number of faces shared with processor 16 = 49
    Number of faces shared with processor 21 = 29
    Number of faces shared with processor 23 = 7
    Number of faces shared with processor 28 = 37
    Number of processor patches = 5
    Number of processor faces = 124
    Number of boundary faces = 666

Processor 23
    Number of cells = 333
    Number of faces shared with processor 17 = 29
    Number of faces shared with processor 22 = 7
    Number of faces shared with processor 28 = 9
    Number of faces shared with processor 29 = 26
    Number of processor patches = 4
    Number of processor faces = 71
    Number of boundary faces = 679

Processor 24
    Number of cells = 333
    Number of faces shared with processor 18 = 43
    Number of faces shared with processor 19 = 13
    Number of faces shared with processor 25 = 13
    Number of faces shared with processor 30 = 23
    Number of processor patches = 4
    Number of processor faces = 92
    Number of boundary faces = 676

Processor 25
    Number of cells = 333
    Number of faces shared with processor 19 = 29
    Number of faces shared with processor 20 = 9
    Number of faces shared with processor 24 = 13
    Number of faces shared with processor 26 = 14
    Number of faces shared with processor 30 = 11
    Number of faces shared with processor 31 = 24
    Number of processor patches = 6
    Number of processor faces = 100
    Number of boundary faces = 666

Processor 26
    Number of cells = 333
    Number of faces shared with processor 20 = 29
    Number of faces shared with processor 25 = 14
    Number of faces shared with processor 27 = 10
    Number of faces shared with processor 31 = 8
    Number of faces shared with processor 32 = 24
    Number of faces shared with processor 33 = 13
    Number of processor patches = 6
    Number of processor faces = 98
    Number of boundary faces = 666

Processor 27
    Number of cells = 333
    Number of faces shared with processor 20 = 14
    Number of faces shared with processor 21 = 30
    Number of faces shared with processor 26 = 10
    Number of faces shared with processor 28 = 24
    Number of faces shared with processor 33 = 23
    Number of faces shared with processor 34 = 1
    Number of processor patches = 6
    Number of processor faces = 102
    Number of boundary faces = 666

Processor 28
    Number of cells = 333
    Number of faces shared with processor 21 = 3
    Number of faces shared with processor 22 = 37
    Number of faces shared with processor 23 = 9
    Number of faces shared with processor 27 = 24
    Number of faces shared with processor 29 = 6
    Number of faces shared with processor 34 = 15
    Number of processor patches = 6
    Number of processor faces = 94
    Number of boundary faces = 666

Processor 29
    Number of cells = 333
    Number of faces shared with processor 23 = 26
    Number of faces shared with processor 28 = 6
    Number of faces shared with processor 34 = 9
    Number of faces shared with processor 35 = 25
    Number of processor patches = 4
    Number of processor faces = 66
    Number of boundary faces = 680

Processor 30
    Number of cells = 335
    Number of faces shared with processor 24 = 23
    Number of faces shared with processor 25 = 11
    Number of faces shared with processor 31 = 20
    Number of processor patches = 3
    Number of processor faces = 54
    Number of boundary faces = 708

Processor 31
    Number of cells = 335
    Number of faces shared with processor 25 = 24
    Number of faces shared with processor 26 = 8
    Number of faces shared with processor 30 = 20
    Number of faces shared with processor 32 = 25
    Number of processor patches = 4
    Number of processor faces = 77
    Number of boundary faces = 683

Processor 32
    Number of cells = 335
    Number of faces shared with processor 26 = 24
    Number of faces shared with processor 31 = 25
    Number of faces shared with processor 33 = 22
    Number of processor patches = 3
    Number of processor faces = 71
    Number of boundary faces = 683

Processor 33
    Number of cells = 335
    Number of faces shared with processor 26 = 13
    Number of faces shared with processor 27 = 23
    Number of faces shared with processor 32 = 22
    Number of faces shared with processor 34 = 20
    Number of processor patches = 4
    Number of processor faces = 78
    Number of boundary faces = 682

Processor 34
    Number of cells = 335
    Number of faces shared with processor 27 = 1
    Number of faces shared with processor 28 = 15
    Number of faces shared with processor 29 = 9
    Number of faces shared with processor 33 = 20
    Number of faces shared with processor 35 = 13
    Number of processor patches = 5
    Number of processor faces = 58
    Number of boundary faces = 686

Processor 35
    Number of cells = 335
    Number of faces shared with processor 29 = 25
    Number of faces shared with processor 34 = 13
    Number of processor patches = 2
    Number of processor faces = 38
    Number of boundary faces = 708

Number of processor faces = 1455
Max number of cells = 335 (0.5% above average 333.333)
Max number of processor patches = 7 (51.8072% above average 4.61111)
Max number of faces between processors = 124 (53.4021% above average 80.8333)

Time = 0

Processor 0: field transfer
Processor 1: field transfer
Processor 2: field transfer
Processor 3: field transfer
Processor 4: field transfer
Processor 5: field transfer
Processor 6: field transfer
Processor 7: field transfer
Processor 8: field transfer
Processor 9: field transfer
Processor 10: field transfer
Processor 11: field transfer
Processor 12: field transfer
Processor 13: field transfer
Processor 14: field transfer
Processor 15: field transfer
Processor 16: field transfer
Processor 17: field transfer
Processor 18: field transfer
Processor 19: field transfer
Processor 20: field transfer
Processor 21: field transfer
Processor 22: field transfer
Processor 23: field transfer
Processor 24: field transfer
Processor 25: field transfer
Processor 26: field transfer
Processor 27: field transfer
Processor 28: field transfer
Processor 29: field transfer
Processor 30: field transfer
Processor 31: field transfer
Processor 32: field transfer
Processor 33: field transfer
Processor 34: field transfer
Processor 35: field transfer

End

