/*---------------------------------------------------------------------------*\
  =========                 |
  \\      /  F ield         | OpenFOAM: The Open Source CFD Toolbox
   \\    /   O peration     | Website:  https://openfoam.org
    \\  /    A nd           | Version:  7
     \\/     M anipulation  |
\*---------------------------------------------------------------------------*/
Build  : 7-49b2b3b8b082
Exec   : icoFoam -parallel
Date   : Apr 14 2022
Time   : 01:42:14
Host   : "c405-042.stampede2.tacc.utexas.edu"
PID    : 109878
I/O    : uncollated
Case   : /work2/07705/jmj3957/stampede2/COE347FinalProject/Simulations/Incompressible/diamond_test
nProcs : 36
Slaves : 
35
(
"c405-042.stampede2.tacc.utexas.edu.109879"
"c405-042.stampede2.tacc.utexas.edu.109880"
"c405-042.stampede2.tacc.utexas.edu.109881"
"c405-042.stampede2.tacc.utexas.edu.109882"
"c405-042.stampede2.tacc.utexas.edu.109883"
"c405-042.stampede2.tacc.utexas.edu.109884"
"c405-042.stampede2.tacc.utexas.edu.109885"
"c405-042.stampede2.tacc.utexas.edu.109886"
"c405-042.stampede2.tacc.utexas.edu.109887"
"c405-042.stampede2.tacc.utexas.edu.109888"
"c405-042.stampede2.tacc.utexas.edu.109889"
"c405-042.stampede2.tacc.utexas.edu.109890"
"c405-042.stampede2.tacc.utexas.edu.109891"
"c405-042.stampede2.tacc.utexas.edu.109892"
"c405-042.stampede2.tacc.utexas.edu.109893"
"c405-042.stampede2.tacc.utexas.edu.109894"
"c405-042.stampede2.tacc.utexas.edu.109895"
"c405-042.stampede2.tacc.utexas.edu.109896"
"c405-042.stampede2.tacc.utexas.edu.109897"
"c405-042.stampede2.tacc.utexas.edu.109898"
"c405-042.stampede2.tacc.utexas.edu.109899"
"c405-042.stampede2.tacc.utexas.edu.109900"
"c405-042.stampede2.tacc.utexas.edu.109901"
"c405-042.stampede2.tacc.utexas.edu.109902"
"c405-042.stampede2.tacc.utexas.edu.109903"
"c405-042.stampede2.tacc.utexas.edu.109904"
"c405-042.stampede2.tacc.utexas.edu.109905"
"c405-042.stampede2.tacc.utexas.edu.109906"
"c405-042.stampede2.tacc.utexas.edu.109907"
"c405-042.stampede2.tacc.utexas.edu.109908"
"c405-042.stampede2.tacc.utexas.edu.109909"
"c405-042.stampede2.tacc.utexas.edu.109910"
"c405-042.stampede2.tacc.utexas.edu.109911"
"c405-042.stampede2.tacc.utexas.edu.109912"
"c405-042.stampede2.tacc.utexas.edu.109913"
)

Pstream initialized with:
    floatTransfer      : 0
    nProcsSimpleSum    : 0
    commsType          : nonBlocking
    polling iterations : 0
sigFpe : Enabling floating point exception trapping (FOAM_SIGFPE).
fileModificationChecking : Monitoring run-time modified files using timeStampMaster (fileModificationSkew 10)
allowSystemOperations : Allowing user-supplied system call operations

// * * * * * * * * * * * * * * * * * * * * * * * * * * * * * * * * * * * * * //
Create time

Create mesh for time = 0

Reading transportProperties

Reading field p

Reading field U

Reading/calculating face flux field phi


Starting time loop

--> FOAM Warning : 
    From function void Foam::probes::findElements(const Foam::fvMesh &)
    in file probes/probes.C at line 119
    Did not find location (0 0 0) in any cell. Skipping location.
Reading set description:
    line1
    line2
    line3
    line4

forces forces:
--> FOAM Warning : 
    From function Foam::HashSet<int, Foam::Hash<int>> Foam::polyBoundaryMesh::patchSet(const Foam::UList<Foam::wordRe> &, bool, bool) const
    in file meshes/polyMesh/polyBoundaryMesh/polyBoundaryMesh.C at line 804
    Cannot find any patch or group names matching cylinder
    Not including porosity effects
forces forceCoeffs:
--> FOAM Warning : 
    From function Foam::HashSet<int, Foam::Hash<int>> Foam::polyBoundaryMesh::patchSet(const Foam::UList<Foam::wordRe> &, bool, bool) const
    in file meshes/polyMesh/polyBoundaryMesh/polyBoundaryMesh.C at line 804
    Cannot find any patch or group names matching cylinder
    Not including porosity effects
forceCoeffs forceCoeffs:
--> FOAM Warning : 
    From function Foam::HashSet<int, Foam::Hash<int>> Foam::polyBoundaryMesh::patchSet(const Foam::UList<Foam::wordRe> &, bool, bool) const
    in file meshes/polyMesh/polyBoundaryMesh/polyBoundaryMesh.C at line 804
    Cannot find any patch or group names matching cylinder
    Not including porosity effects
Time = 0.0002

Courant Number mean: 0.00197587 max: 0.0225853
smoothSolver:  Solving for Ux, Initial residual = 1, Final residual = 7.92629e-08, No Iterations 16
smoothSolver:  Solving for Uy, Initial residual = 0, Final residual = 0, No Iterations 0
DICPCG:  Solving for p, Initial residual = 1, Final residual = 9.00081e-08, No Iterations 299
time step continuity errors : sum local = 9.18683e-14, global = 7.08954e-16, cumulative = 7.08954e-16
DICPCG:  Solving for p, Initial residual = 0.340571, Final residual = 8.71865e-08, No Iterations 293
time step continuity errors : sum local = 5.32289e-13, global = -4.65967e-15, cumulative = -3.95071e-15
ExecutionTime = 0.66 s  ClockTime = 1 s

forces forces write:
    sum of forces:
        pressure : (0 0 0)
        viscous  : (0 0 0)
        porous   : (0 0 0)
    sum of moments:
        pressure : (0 0 0)
        viscous  : (0 0 0)
        porous   : (0 0 0)

forceCoeffs forceCoeffs write:
    Cm    = 0
    Cd    = 0
    Cl    = 0
    Cl(f) = 0
    Cl(r) = 0

Time = 0.0004

Courant Number mean: 0.00197368 max: 0.025569
smoothSolver:  Solving for Ux, Initial residual = 0.163204, Final residual = 8.98148e-08, No Iterations 9
smoothSolver:  Solving for Uy, Initial residual = 0.340312, Final residual = 6.89151e-08, No Iterations 10
DICPCG:  Solving for p, Initial residual = 0.705364, Final residual = 9.87031e-08, No Iterations 282
time step continuity errors : sum local = 1.24056e-12, global = 5.48425e-15, cumulative = 1.53354e-15
DICPCG:  Solving for p, Initial residual = 0.894076, Final residual = 9.80292e-08, No Iterations 299
time step continuity errors : sum local = 1.96413e-12, global = -8.21414e-15, cumulative = -6.68061e-15
ExecutionTime = 0.73 s  ClockTime = 1 s

forces forces write:
    sum of forces:
        pressure : (0 0 0)
        viscous  : (0 0 0)
        porous   : (0 0 0)
    sum of moments:
        pressure : (0 0 0)
        viscous  : (0 0 0)
        porous   : (0 0 0)

forceCoeffs forceCoeffs write:
    Cm    = 0
    Cd    = 0
    Cl    = 0
    Cl(f) = 0
    Cl(r) = 0

Time = 0.0006

Courant Number mean: 0.00197774 max: 0.182581
smoothSolver:  Solving for Ux, Initial residual = 0.0212463, Final residual = 9.89346e-08, No Iterations 13
smoothSolver:  Solving for Uy, Initial residual = 0.338503, Final residual = 4.77192e-08, No Iterations 14
DICPCG:  Solving for p, Initial residual = 0.995674, Final residual = 8.82405e-08, No Iterations 300
time step continuity errors : sum local = 9.52571e-12, global = 4.99758e-14, cumulative = 4.32952e-14
DICPCG:  Solving for p, Initial residual = 0.993665, Final residual = 8.13619e-08, No Iterations 300
time step continuity errors : sum local = 2.22738e-11, global = -1.24818e-13, cumulative = -8.15232e-14
ExecutionTime = 0.8 s  ClockTime = 1 s

forces forces write:
    sum of forces:
        pressure : (0 0 0)
        viscous  : (0 0 0)
        porous   : (0 0 0)
    sum of moments:
        pressure : (0 0 0)
        viscous  : (0 0 0)
        porous   : (0 0 0)

forceCoeffs forceCoeffs write:
    Cm    = 0
    Cd    = 0
    Cl    = 0
    Cl(f) = 0
    Cl(r) = 0

Time = 0.0008

Courant Number mean: 0.00210086 max: 3.06227
smoothSolver:  Solving for Ux, Initial residual = 0.0106107, Final residual = 8.35405e-08, No Iterations 16
smoothSolver:  Solving for Uy, Initial residual = 0.458176, Final residual = 7.39043e-08, No Iterations 19
DICPCG:  Solving for p, Initial residual = 0.992945, Final residual = 9.85606e-08, No Iterations 299
time step continuity errors : sum local = 1.69367e-10, global = 5.85845e-13, cumulative = 5.04322e-13
DICPCG:  Solving for p, Initial residual = 0.991261, Final residual = 9.33288e-08, No Iterations 299
time step continuity errors : sum local = 4.15469e-10, global = -1.5777e-12, cumulative = -1.07337e-12
ExecutionTime = 0.87 s  ClockTime = 1 s

forces forces write:
    sum of forces:
        pressure : (0 0 0)
        viscous  : (0 0 0)
        porous   : (0 0 0)
    sum of moments:
        pressure : (0 0 0)
        viscous  : (0 0 0)
        porous   : (0 0 0)

forceCoeffs forceCoeffs write:
    Cm    = 0
    Cd    = 0
    Cl    = 0
    Cl(f) = 0
    Cl(r) = 0

Time = 0.001

Courant Number mean: 0.0041018 max: 57.9709
[18] #0  Foam::error::printStack(Foam::Ostream&) at ??:?
[18] #1  Foam::sigFpe::sigHandler(int) at ??:?
[18] #2  ? in "/lib64/libpthread.so.0"
[18] #3  Foam::symGaussSeidelSmoother::smooth(Foam::word const&, Foam::Field<double>&, Foam::lduMatrix const&, Foam::Field<double> const&, Foam::FieldField<Foam::Field, double> const&, Foam::UPtrList<Foam::lduInterfaceField const> const&, unsigned char, int) at ??:?
[18] #4  Foam::symGaussSeidelSmoother::smooth(Foam::Field<double>&, Foam::Field<double> const&, unsigned char, int) const at ??:?
[18] #5  Foam::smoothSolver::solve(Foam::Field<double>&, Foam::Field<double> const&, unsigned char) const at ??:?
[18] #6  ? at ??:?
[18] #7  ? at ??:?
[18] #8  ? at ??:?
[18] #9  ? at ??:?
[18] #10  __libc_start_main in "/lib64/libc.so.6"
[18] #11  ? at ??:?

===================================================================================
=   BAD TERMINATION OF ONE OF YOUR APPLICATION PROCESSES
=   PID 109896 RUNNING AT c405-042
=   EXIT CODE: 8
=   CLEANING UP REMAINING PROCESSES
=   YOU CAN IGNORE THE BELOW CLEANUP MESSAGES
===================================================================================
   Intel(R) MPI Library troubleshooting guide:
      https://software.intel.com/node/561764
===================================================================================
