/*---------------------------------------------------------------------------*\
  =========                 |
  \\      /  F ield         | OpenFOAM: The Open Source CFD Toolbox
   \\    /   O peration     | Website:  https://openfoam.org
    \\  /    A nd           | Version:  7
     \\/     M anipulation  |
\*---------------------------------------------------------------------------*/
Build  : 7-49b2b3b8b082
Exec   : blockMesh
Date   : Apr 24 2022
Time   : 23:00:24
Host   : "c455-004.stampede2.tacc.utexas.edu"
PID    : 149130
I/O    : uncollated
Case   : /work2/07674/bradenp/stampede2/diamond-airfoil/diamond_test
nProcs : 1
sigFpe : Enabling floating point exception trapping (FOAM_SIGFPE).
fileModificationChecking : Monitoring run-time modified files using timeStampMaster (fileModificationSkew 10)
allowSystemOperations : Allowing user-supplied system call operations

// * * * * * * * * * * * * * * * * * * * * * * * * * * * * * * * * * * * * * //
Create time

Creating block mesh from
    "/work2/07674/bradenp/stampede2/diamond-airfoil/diamond_test/system/blockMeshDict"
No non-linear block edges defined
No non-planar block faces defined
Creating topology blocks
Creating topology patches

Creating block mesh topology
--> FOAM Warning : 
    From function Foam::polyMesh::polyMesh(const Foam::IOobject &, Foam::Field<Foam::Vector<double>> &&, const Foam::List<Foam::cellShape> &, const Foam::List<Foam::List<Foam::face>> &, const Foam::List<Foam::word> &, const Foam::PtrList<Foam::dictionary> &, const Foam::word &, const Foam::word &, bool)
    in file meshes/polyMesh/polyMeshFromShapeMesh.C at line 873
    Found 16 undefined faces in mesh; adding to default patch.

Check topology

	Basic statistics
		Number of internal faces : 8
		Number of boundary faces : 32
		Number of defined boundary faces : 32
		Number of undefined boundary faces : 0
	Checking patch -> block consistency

Creating block offsets
Creating merge list .

Creating polyMesh from blockMesh
Creating points with scale 1
    Block 0 cell size :
        i : 0.547906 .. 0.547906 0.523571 .. 0.523571 0.547906 .. 0.547906 0.523571 .. 0.523571 
        j : 0.424264 .. 0.424264 0.41079 .. 0.41079 0.424264 .. 0.424264 0.41079 .. 0.41079 
        k : 0.1
    Block 1 cell size :
        i : 0.304558 .. 0.304558
        j : 0.547906 .. 0.547906
        k : 0.1
    Block 2 cell size :
        i : 0.547906 .. 0.547906 0.523571 .. 0.523571 0.547906 .. 0.547906 0.523571 .. 0.523571 
        j : 0.424264 .. 0.424264 0.41079 .. 0.41079 0.424264 .. 0.424264 0.41079 .. 0.41079 
        k : 0.1
    Block 3 cell size :
        i : 0.304558 .. 0.304558
        j : 0.547906 .. 0.547906
        k : 0.1
    Block 4 cell size :
        i : 0.547906 .. 0.547906 0.523571 .. 0.523571 0.547906 .. 0.547906 0.523571 .. 0.523571 
        j : 0.424264 .. 0.424264 0.41079 .. 0.41079 0.424264 .. 0.424264 0.41079 .. 0.41079 
        k : 0.1
    Block 5 cell size :
        i : 0.304558 .. 0.304558
        j : 0.547906 .. 0.547906
        k : 0.1
    Block 6 cell size :
        i : 0.547906 .. 0.547906 0.523571 .. 0.523571 0.547906 .. 0.547906 0.523571 .. 0.523571 
        j : 0.424264 .. 0.424264 0.41079 .. 0.41079 0.424264 .. 0.424264 0.41079 .. 0.41079 
        k : 0.1
    Block 7 cell size :
        i : 0.304558 .. 0.304558
        j : 0.547906 .. 0.547906
        k : 0.1
Creating cells
Creating patches

There are no merge patch pairs edges

Writing polyMesh
----------------
Mesh Information
----------------
  boundingBox: (-6 -6 -0.05) (6 6 0.05)
  nPoints: 1760
  nCells: 800
  nFaces: 3280
  nInternalFaces: 1520
----------------
Patches
----------------
  patch 0 (start: 1520 size: 30) name: inlet
  patch 1 (start: 1550 size: 30) name: outlet
  patch 2 (start: 1580 size: 40) name: airfoil
  patch 3 (start: 1620 size: 30) name: top
  patch 4 (start: 1650 size: 30) name: bottom
  patch 5 (start: 1680 size: 1600) name: defaultFaces

End

