/*---------------------------------------------------------------------------*\
  =========                 |
  \\      /  F ield         | OpenFOAM: The Open Source CFD Toolbox
   \\    /   O peration     | Website:  https://openfoam.org
    \\  /    A nd           | Version:  7
     \\/     M anipulation  |
\*---------------------------------------------------------------------------*/
Build  : 7-49b2b3b8b082
Exec   : blockMesh
Date   : Apr 14 2022
Time   : 01:41:49
Host   : "c405-042.stampede2.tacc.utexas.edu"
PID    : 104870
I/O    : uncollated
Case   : /work2/07705/jmj3957/stampede2/COE347FinalProject/Simulations/Incompressible/diamond_test
nProcs : 1
sigFpe : Enabling floating point exception trapping (FOAM_SIGFPE).
fileModificationChecking : Monitoring run-time modified files using timeStampMaster (fileModificationSkew 10)
allowSystemOperations : Allowing user-supplied system call operations

// * * * * * * * * * * * * * * * * * * * * * * * * * * * * * * * * * * * * * //
Create time

Deleting polyMesh directory
    "/work2/07705/jmj3957/stampede2/COE347FinalProject/Simulations/Incompressible/diamond_test/constant/polyMesh"
Creating block mesh from
    "/work2/07705/jmj3957/stampede2/COE347FinalProject/Simulations/Incompressible/diamond_test/system/blockMeshDict"
No non-linear block edges defined
No non-planar block faces defined
Creating topology blocks
Creating topology patches

Creating block mesh topology
--> FOAM Warning : 
    From function Foam::polyMesh::polyMesh(const Foam::IOobject &, Foam::Field<Foam::Vector<double>> &&, const Foam::List<Foam::cellShape> &, const Foam::List<Foam::List<Foam::face>> &, const Foam::List<Foam::word> &, const Foam::PtrList<Foam::dictionary> &, const Foam::word &, const Foam::word &, bool)
    in file meshes/polyMesh/polyMeshFromShapeMesh.C at line 873
    Found 40 undefined faces in mesh; adding to default patch.

Check topology

	Basic statistics
		Number of internal faces : 28
		Number of boundary faces : 64
		Number of defined boundary faces : 64
		Number of undefined boundary faces : 0
	Checking patch -> block consistency

Creating block offsets
Creating merge list .

Creating polyMesh from blockMesh
Creating points with scale 1
    Block 0 cell size :
        i : 0.00865552 .. 0.017311 0.00844191 .. 0.0168838 0.00865552 .. 0.017311 0.00844191 .. 0.0168838 
        j : 0.0127475 0.0130033 .. 0.0130033 0.0127475 0.0130033 .. 0.0130033 
        k : 0.1
    Block 1 cell size :
        i : 0.00612038 .. 0.0122408 0.00612802 .. 0.012256 0.00612038 .. 0.0122408 0.00612802 .. 0.012256 
        j : 0.0127475 .. 0.0127475 0.0130033 .. 0.0130033 0.0127475 .. 0.0127475 0.0130033 .. 0.0130033 
        k : 0.1
    Block 2 cell size :
        i : 0.00865552 .. 0.017311 0.00844191 .. 0.0168838 0.00865552 .. 0.017311 0.00844191 .. 0.0168838 
        j : 0.0127475 .. 0.0127475 0.0130033 .. 0.0130033 0.0127475 .. 0.0127475 0.0130033 .. 0.0130033 
        k : 0.1
    Block 3 cell size :
        i : 0.00612038 .. 0.0122408 0.00612802 .. 0.012256 0.00612038 .. 0.0122408 0.00612802 .. 0.012256 
        j : 0.0127475 0.0130033 .. 0.0130033 0.0127475 0.0130033 .. 0.0130033 
        k : 0.1
    Block 4 cell size :
        i : 0.00865552 .. 0.017311 0.00844191 .. 0.0168838 0.00865552 .. 0.017311 0.00844191 .. 0.0168838 
        j : 0.0127475 0.0130033 .. 0.0130033 0.0127475 0.0130033 .. 0.0130033 
        k : 0.1
    Block 5 cell size :
        i : 0.00612038 .. 0.0122408 0.00612802 .. 0.012256 0.00612038 .. 0.0122408 0.00612802 .. 0.012256 
        j : 0.0127475 .. 0.0127475 0.0130033 .. 0.0130033 0.0127475 .. 0.0127475 0.0130033 .. 0.0130033 
        k : 0.1
    Block 6 cell size :
        i : 0.00865552 .. 0.017311 0.00844191 .. 0.0168838 0.00865552 .. 0.017311 0.00844191 .. 0.0168838 
        j : 0.0127475 .. 0.0127475 0.0130033 .. 0.0130033 0.0127475 .. 0.0127475 0.0130033 .. 0.0130033 
        k : 0.1
    Block 7 cell size :
        i : 0.00612038 .. 0.0122408 0.00612802 .. 0.012256 0.00612038 .. 0.0122408 0.00612802 .. 0.012256 
        j : 0.0127475 0.0130033 .. 0.0130033 0.0127475 0.0130033 .. 0.0130033 
        k : 0.1
    Block 8 cell size :
        i : 0.0865552 .. 0.17311 0.086988 .. 0.173976 0.0865552 .. 0.17311 0.086988 .. 0.173976 
        j : 0.0291548 .. 0.0291548 0.0287845 .. 0.0287845 0.0291548 .. 0.0291548 0.0287845 .. 0.0287845 
        k : 0.1
    Block 9 cell size :
        i : 0.0952107 .. 0.190421
        j : 0.101096 .. 0.303289
        k : 0.1
    Block 10 cell size :
        i : 0.101096 .. 0.303289 0.100687 .. 0.30206 0.101096 .. 0.303289 0.100687 .. 0.30206 
        j : 0.0291548 .. 0.0291548 0.028946 .. 0.028946 0.0291548 .. 0.0291548 0.028946 .. 0.028946 
        k : 0.1
    Block 11 cell size :
        i : 0.0928994 .. 0.278698 0.0933093 .. 0.279928 0.0928994 .. 0.278698 0.0933093 .. 0.279928 
        j : 0.0291548 .. 0.0291548 0.028946 .. 0.028946 0.0291548 .. 0.0291548 0.028946 .. 0.028946 
        k : 0.1
    Block 12 cell size :
        i : 0.101096 .. 0.303289
        j : 0.137646 .. 0.688228
        k : 0.1
    Block 13 cell size :
        i : 0.137646 .. 0.688228 0.136662 .. 0.683312 0.137646 .. 0.688228 0.136662 .. 0.683312 
        j : 0.0291548 0.0283162 0.0291548 0.0283162 
        k : 0.1
    Block 14 cell size :
        i : 0.117982 .. 0.589909 0.118965 .. 0.594825 0.117982 .. 0.589909 0.118965 .. 0.594825 
        j : 0.0291548 .. 0.0291548 0.0283162 .. 0.0283162 0.0291548 .. 0.0291548 0.0283162 .. 0.0283162 
        k : 0.1
    Block 15 cell size :
        i : 0.137646 .. 0.688228
        j : 0.101096 .. 0.303289
        k : 0.1
    Block 16 cell size :
        i : 0.101096 .. 0.303289 0.100687 .. 0.30206 0.101096 .. 0.303289 0.100687 .. 0.30206 
        j : 0.0291548 .. 0.0291548 0.028946 .. 0.028946 0.0291548 .. 0.0291548 0.028946 .. 0.028946 
        k : 0.1
    Block 17 cell size :
        i : 0.0928994 .. 0.278698 0.0933093 .. 0.279928 0.0928994 .. 0.278698 0.0933093 .. 0.279928 
        j : 0.0291548 .. 0.0291548 0.028946 .. 0.028946 0.0291548 .. 0.0291548 0.028946 .. 0.028946 
        k : 0.1
    Block 18 cell size :
        i : 0.101096 .. 0.303289
        j : 0.0952107 .. 0.190421
        k : 0.1
    Block 19 cell size :
        i : 0.0952107 .. 0.190421 0.094778 .. 0.189556 0.0952107 .. 0.190421 0.094778 .. 0.189556 
        j : 0.0291548 0.0287845 0.0291548 0.0287845 .. 0.0287845 
        k : 0.1
Creating cells
Creating patches

There are no merge patch pairs edges

Writing polyMesh
----------------
Mesh Information
----------------
  boundingBox: (-4 -4 -0.05) (6 4 0.05)
  nPoints: 24500
  nCells: 12000
  nFaces: 48250
  nInternalFaces: 23750
----------------
Patches
----------------
  patch 0 (start: 23750 size: 80) name: inlet
  patch 1 (start: 23830 size: 80) name: outlet
  patch 2 (start: 23910 size: 160) name: airfoil
  patch 3 (start: 24070 size: 90) name: top
  patch 4 (start: 24160 size: 90) name: bottom
  patch 5 (start: 24250 size: 24000) name: defaultFaces

End

