/*---------------------------------------------------------------------------*\
  =========                 |
  \\      /  F ield         | OpenFOAM: The Open Source CFD Toolbox
   \\    /   O peration     | Website:  https://openfoam.org
    \\  /    A nd           | Version:  7
     \\/     M anipulation  |
\*---------------------------------------------------------------------------*/
Build  : 7-49b2b3b8b082
Exec   : blockMesh
Date   : Apr 24 2022
Time   : 23:29:35
Host   : "c455-004.stampede2.tacc.utexas.edu"
PID    : 152056
I/O    : uncollated
Case   : /work2/07674/bradenp/stampede2/diamond-airfoil/diamond_test
nProcs : 1
sigFpe : Enabling floating point exception trapping (FOAM_SIGFPE).
fileModificationChecking : Monitoring run-time modified files using timeStampMaster (fileModificationSkew 10)
allowSystemOperations : Allowing user-supplied system call operations

// * * * * * * * * * * * * * * * * * * * * * * * * * * * * * * * * * * * * * //
Create time

Creating block mesh from
    "/work2/07674/bradenp/stampede2/diamond-airfoil/diamond_test/system/blockMeshDict"
No non-linear block edges defined
No non-planar block faces defined
Creating topology blocks
Creating topology patches

Creating block mesh topology
--> FOAM Warning : 
    From function Foam::polyMesh::polyMesh(const Foam::IOobject &, Foam::Field<Foam::Vector<double>> &&, const Foam::List<Foam::cellShape> &, const Foam::List<Foam::List<Foam::face>> &, const Foam::List<Foam::word> &, const Foam::PtrList<Foam::dictionary> &, const Foam::word &, const Foam::word &, bool)
    in file meshes/polyMesh/polyMeshFromShapeMesh.C at line 873
    Found 16 undefined faces in mesh; adding to default patch.

Check topology

	Basic statistics
		Number of internal faces : 8
		Number of boundary faces : 32
		Number of defined boundary faces : 32
		Number of undefined boundary faces : 0
	Checking patch -> block consistency

Creating block offsets
Creating merge list .

Creating polyMesh from blockMesh
Creating points with scale 1
    Block 0 cell size :
        i : 0.0731026 .. 0.438616 0.0721766 .. 0.43306 0.0731026 .. 0.438616 0.0721766 .. 0.43306 
        j : 0.0790569 .. 0.0790569 0.0781411 .. 0.0781411 0.0790569 .. 0.0790569 0.0781411 .. 0.0781411 
        k : 0.1
    Block 1 cell size :
        i : 0.0360629 .. 0.216377
        j : 0.0868378 .. 0.434189
        k : 0.1
    Block 2 cell size :
        i : 0.0868378 .. 0.434189 0.0863365 .. 0.431683 0.0868378 .. 0.434189 0.0863365 .. 0.431683 
        j : 0.0790569 .. 0.0790569 0.0788195 .. 0.0788195 0.0790569 .. 0.0790569 0.0788195 .. 0.0788195 
        k : 0.1
    Block 3 cell size :
        i : 0.0667861 .. 0.333931
        j : 0.0519185 .. 0.519185
        k : 0.1
    Block 4 cell size :
        i : 0.0519185 .. 0.519185 0.0512608 .. 0.512608 0.0519185 .. 0.519185 0.0512608 .. 0.512608 
        j : 0.0790569 .. 0.0790569 0.0784065 .. 0.0784065 0.0790569 .. 0.0790569 0.0784065 .. 0.0784065 
        k : 0.1
    Block 5 cell size :
        i : 0.0256124 .. 0.256124
        j : 0.0868378 .. 0.434189
        k : 0.1
    Block 6 cell size :
        i : 0.0868378 .. 0.434189 0.0863365 .. 0.431683 0.0868378 .. 0.434189 0.0863365 .. 0.431683 
        j : 0.0790569 .. 0.0790569 0.0788195 .. 0.0788195 0.0790569 .. 0.0790569 0.0788195 .. 0.0788195 
        k : 0.1
    Block 7 cell size :
        i : 0.0667861 .. 0.333931
        j : 0.0731026 .. 0.438616
        k : 0.1
Creating cells
Creating patches

There are no merge patch pairs edges

Writing polyMesh
----------------
Mesh Information
----------------
  boundingBox: (-6 -6 -0.05) (6 6 0.05)
  nPoints: 17360
  nCells: 8400
  nFaces: 33880
  nInternalFaces: 16520
----------------
Patches
----------------
  patch 0 (start: 16520 size: 100) name: inlet
  patch 1 (start: 16620 size: 100) name: outlet
  patch 2 (start: 16720 size: 160) name: airfoil
  patch 3 (start: 16880 size: 100) name: top
  patch 4 (start: 16980 size: 100) name: bottom
  patch 5 (start: 17080 size: 16800) name: defaultFaces

End

