/*---------------------------------------------------------------------------*\
  =========                 |
  \\      /  F ield         | OpenFOAM: The Open Source CFD Toolbox
   \\    /   O peration     | Website:  https://openfoam.org
    \\  /    A nd           | Version:  7
     \\/     M anipulation  |
\*---------------------------------------------------------------------------*/
Build  : 7-49b2b3b8b082
Exec   : reconstructPar
Date   : May 06 2022
Time   : 23:31:12
Host   : "c402-044.stampede2.tacc.utexas.edu"
PID    : 4060
I/O    : uncollated
Case   : /work2/07674/bradenp/stampede2/diamond-airfoil/simulations/unorganized/small_timestep_smallgrid
nProcs : 1
sigFpe : Enabling floating point exception trapping (FOAM_SIGFPE).
fileModificationChecking : Monitoring run-time modified files using timeStampMaster (fileModificationSkew 10)
allowSystemOperations : Allowing user-supplied system call operations

// * * * * * * * * * * * * * * * * * * * * * * * * * * * * * * * * * * * * * //
Create time



Reconstructing fields for mesh region0

Time = 0.2001

Reconstructing FV fields

    Reconstructing volScalarFields

        T
        p
        rho

    Reconstructing volVectorFields

        U

Reconstructing point fields

No point fields

No lagrangian fields

Time = 0.3999

Reconstructing FV fields

    Reconstructing volScalarFields

        T
        p
        rho

    Reconstructing volVectorFields

        U

Reconstructing point fields

No point fields

No lagrangian fields

Time = 0.6

Reconstructing FV fields

    Reconstructing volScalarFields

        T
        p
        rho

    Reconstructing volVectorFields

        U

Reconstructing point fields

No point fields

No lagrangian fields

Time = 0.8001

Reconstructing FV fields

    Reconstructing volScalarFields

        T
        p
        rho

    Reconstructing volVectorFields

        U

Reconstructing point fields

No point fields

No lagrangian fields

Time = 0.9999

Reconstructing FV fields

    Reconstructing volScalarFields

        T
        p
        rho

    Reconstructing volVectorFields

        U

Reconstructing point fields

No point fields

No lagrangian fields

Time = 1.2

Reconstructing FV fields

    Reconstructing volScalarFields

        T
        p
        rho

    Reconstructing volVectorFields

        U

Reconstructing point fields

No point fields

No lagrangian fields

Time = 1.4001

Reconstructing FV fields

    Reconstructing volScalarFields

        T
        p
        rho

    Reconstructing volVectorFields

        U

Reconstructing point fields

No point fields

No lagrangian fields

Time = 1.5999

Reconstructing FV fields

    Reconstructing volScalarFields

        T
        p
        rho

    Reconstructing volVectorFields

        U

Reconstructing point fields

No point fields

No lagrangian fields

Time = 1.8

Reconstructing FV fields

    Reconstructing volScalarFields

        T
        p
        rho

    Reconstructing volVectorFields

        U

Reconstructing point fields

No point fields

No lagrangian fields

Time = 2.0001

Reconstructing FV fields

    Reconstructing volScalarFields

        T
        p
        rho

    Reconstructing volVectorFields

        U

Reconstructing point fields

No point fields

No lagrangian fields

Time = 2.1999

Reconstructing FV fields

    Reconstructing volScalarFields

        T
        p
        rho

    Reconstructing volVectorFields

        U

Reconstructing point fields

No point fields

No lagrangian fields

Time = 2.4

Reconstructing FV fields

    Reconstructing volScalarFields

        T
        p
        rho

    Reconstructing volVectorFields

        U

Reconstructing point fields

No point fields

No lagrangian fields

Time = 2.6001

Reconstructing FV fields

    Reconstructing volScalarFields

        T
        p
        rho

    Reconstructing volVectorFields

        U

Reconstructing point fields

No point fields

No lagrangian fields

Time = 2.7999

Reconstructing FV fields

    Reconstructing volScalarFields

        T
        p
        rho

    Reconstructing volVectorFields

        U

Reconstructing point fields

No point fields

No lagrangian fields

Time = 3

Reconstructing FV fields

    Reconstructing volScalarFields

        T
        p
        rho

    Reconstructing volVectorFields

        U

Reconstructing point fields

No point fields

No lagrangian fields

Time = 3.2001

Reconstructing FV fields

    Reconstructing volScalarFields

        T
        p
        rho

    Reconstructing volVectorFields

        U

Reconstructing point fields

No point fields

No lagrangian fields

Time = 3.3999

Reconstructing FV fields

    Reconstructing volScalarFields

        T
        p
        rho

    Reconstructing volVectorFields

        U

Reconstructing point fields

No point fields

No lagrangian fields

Time = 3.6

Reconstructing FV fields

    Reconstructing volScalarFields

        T
        p
        rho

    Reconstructing volVectorFields

        U

Reconstructing point fields

No point fields

No lagrangian fields

Time = 3.8001

Reconstructing FV fields

    Reconstructing volScalarFields

        T
        p
        rho

    Reconstructing volVectorFields

        U

Reconstructing point fields

No point fields

No lagrangian fields

Time = 3.9999

Reconstructing FV fields

    Reconstructing volScalarFields

        T
        p
        rho

    Reconstructing volVectorFields

        U

Reconstructing point fields

No point fields

No lagrangian fields

Time = 4.2

Reconstructing FV fields

    Reconstructing volScalarFields

        T
        p
        rho

    Reconstructing volVectorFields

        U

Reconstructing point fields

No point fields

No lagrangian fields

Time = 4.4001

Reconstructing FV fields

    Reconstructing volScalarFields

        T
        p
        rho

    Reconstructing volVectorFields

        U

Reconstructing point fields

No point fields

No lagrangian fields

Time = 4.5999

Reconstructing FV fields

    Reconstructing volScalarFields

        T
        p
        rho

    Reconstructing volVectorFields

        U

Reconstructing point fields

No point fields

No lagrangian fields

Time = 4.8

Reconstructing FV fields

    Reconstructing volScalarFields

        T
        p
        rho

    Reconstructing volVectorFields

        U

Reconstructing point fields

No point fields

No lagrangian fields

Time = 5.0001

Reconstructing FV fields

    Reconstructing volScalarFields

        T
        p
        rho

    Reconstructing volVectorFields

        U

Reconstructing point fields

No point fields

No lagrangian fields

Time = 5.1999

Reconstructing FV fields

    Reconstructing volScalarFields

        T
        p
        rho

    Reconstructing volVectorFields

        U

Reconstructing point fields

No point fields

No lagrangian fields

Time = 5.4

Reconstructing FV fields

    Reconstructing volScalarFields

        T
        p
        rho

    Reconstructing volVectorFields

        U

Reconstructing point fields

No point fields

No lagrangian fields

Time = 5.6001

Reconstructing FV fields

    Reconstructing volScalarFields

        T
        p
        rho

    Reconstructing volVectorFields

        U

Reconstructing point fields

No point fields

No lagrangian fields

Time = 5.7999

Reconstructing FV fields

    Reconstructing volScalarFields

        T
        p
        rho

    Reconstructing volVectorFields

        U

Reconstructing point fields

No point fields

No lagrangian fields

Time = 6

Reconstructing FV fields

    Reconstructing volScalarFields

        T
        p
        rho

    Reconstructing volVectorFields

        U

Reconstructing point fields

No point fields

No lagrangian fields

Time = 6.2001

Reconstructing FV fields

    Reconstructing volScalarFields

        T
        p
        rho

    Reconstructing volVectorFields

        U

Reconstructing point fields

No point fields

No lagrangian fields

Time = 6.3999

Reconstructing FV fields

    Reconstructing volScalarFields

        T
        p
        rho

    Reconstructing volVectorFields

        U

Reconstructing point fields

No point fields

No lagrangian fields

Time = 6.6

Reconstructing FV fields

    Reconstructing volScalarFields

        T
        p
        rho

    Reconstructing volVectorFields

        U

Reconstructing point fields

No point fields

No lagrangian fields

Time = 6.8001

Reconstructing FV fields

    Reconstructing volScalarFields

        T
        p
        rho

    Reconstructing volVectorFields

        U

Reconstructing point fields

No point fields

No lagrangian fields

Time = 6.9999

Reconstructing FV fields

    Reconstructing volScalarFields

        T
        p
        rho

    Reconstructing volVectorFields

        U

Reconstructing point fields

No point fields

No lagrangian fields


End

