/*---------------------------------------------------------------------------*\
  =========                 |
  \\      /  F ield         | OpenFOAM: The Open Source CFD Toolbox
   \\    /   O peration     | Website:  https://openfoam.org
    \\  /    A nd           | Version:  7
     \\/     M anipulation  |
\*---------------------------------------------------------------------------*/
Build  : 7-49b2b3b8b082
Exec   : decomposePar
Date   : May 09 2022
Time   : 16:29:38
Host   : "c436-082.stampede2.tacc.utexas.edu"
PID    : 217830
I/O    : uncollated
Case   : /work2/07674/bradenp/stampede2/diamond-airfoil/simulations/unorganized/test_new_mesh
nProcs : 1
sigFpe : Enabling floating point exception trapping (FOAM_SIGFPE).
fileModificationChecking : Monitoring run-time modified files using timeStampMaster (fileModificationSkew 10)
allowSystemOperations : Allowing user-supplied system call operations

// * * * * * * * * * * * * * * * * * * * * * * * * * * * * * * * * * * * * * //
Create time



Decomposing mesh region0

Create mesh

Calculating distribution of cells
 Foam::decompositionMethod::New 
{
    numberOfSubdomains 64;
    method          hierarchical;
    simpleCoeffs
    {
        n               ( 8 8 1 );
        delta           0.001;
    }
    hierarchicalCoeffs
    {
        n               ( 8 8 1 );
        delta           0.001;
        order           xyz;
    }
}

Selecting decompositionMethod hierarchical

Finished decomposition in 0.44 s

Calculating original mesh data

Distributing cells to processors

Distributing faces to processors

Distributing points to processors

Constructing processor meshes

Processor 0
    Number of cells = 5812
    Number of faces shared with processor 1 = 37
    Number of faces shared with processor 8 = 155
    Number of faces shared with processor 9 = 3
    Number of processor patches = 3
    Number of processor faces = 195
    Number of boundary faces = 11813

Processor 1
    Number of cells = 5812
    Number of faces shared with processor 0 = 37
    Number of faces shared with processor 2 = 28
    Number of faces shared with processor 9 = 167
    Number of faces shared with processor 10 = 10
    Number of processor patches = 4
    Number of processor faces = 242
    Number of boundary faces = 11790

Processor 2
    Number of cells = 5812
    Number of faces shared with processor 1 = 28
    Number of faces shared with processor 3 = 22
    Number of faces shared with processor 10 = 189
    Number of faces shared with processor 11 = 20
    Number of faces shared with processor 19 = 1
    Number of processor patches = 5
    Number of processor faces = 260
    Number of boundary faces = 11798

Processor 3
    Number of cells = 5812
    Number of faces shared with processor 2 = 22
    Number of faces shared with processor 4 = 25
    Number of faces shared with processor 11 = 258
    Number of processor patches = 3
    Number of processor faces = 305
    Number of boundary faces = 11879

Processor 4
    Number of cells = 5812
    Number of faces shared with processor 3 = 25
    Number of faces shared with processor 5 = 57
    Number of faces shared with processor 11 = 24
    Number of faces shared with processor 12 = 103
    Number of faces shared with processor 19 = 8
    Number of processor patches = 5
    Number of processor faces = 217
    Number of boundary faces = 11727

Processor 5
    Number of cells = 5812
    Number of faces shared with processor 4 = 57
    Number of faces shared with processor 6 = 38
    Number of faces shared with processor 12 = 8
    Number of faces shared with processor 13 = 91
    Number of faces shared with processor 14 = 28
    Number of processor patches = 5
    Number of processor faces = 222
    Number of boundary faces = 11714

Processor 6
    Number of cells = 5812
    Number of faces shared with processor 5 = 38
    Number of faces shared with processor 7 = 39
    Number of faces shared with processor 14 = 152
    Number of faces shared with processor 15 = 1
    Number of processor patches = 4
    Number of processor faces = 230
    Number of boundary faces = 11774

Processor 7
    Number of cells = 5812
    Number of faces shared with processor 6 = 39
    Number of faces shared with processor 15 = 152
    Number of processor patches = 2
    Number of processor faces = 191
    Number of boundary faces = 11813

Processor 8
    Number of cells = 5812
    Number of faces shared with processor 0 = 155
    Number of faces shared with processor 9 = 30
    Number of faces shared with processor 16 = 156
    Number of faces shared with processor 17 = 9
    Number of processor patches = 4
    Number of processor faces = 350
    Number of boundary faces = 11662

Processor 9
    Number of cells = 5812
    Number of faces shared with processor 0 = 3
    Number of faces shared with processor 1 = 167
    Number of faces shared with processor 8 = 30
    Number of faces shared with processor 10 = 7
    Number of faces shared with processor 17 = 178
    Number of faces shared with processor 18 = 11
    Number of faces shared with processor 26 = 26
    Number of processor patches = 7
    Number of processor faces = 422
    Number of boundary faces = 11624

Processor 10
    Number of cells = 5812
    Number of faces shared with processor 1 = 10
    Number of faces shared with processor 2 = 189
    Number of faces shared with processor 9 = 7
    Number of faces shared with processor 18 = 257
    Number of faces shared with processor 19 = 15
    Number of faces shared with processor 27 = 11
    Number of faces shared with processor 35 = 7
    Number of faces shared with processor 43 = 10
    Number of faces shared with processor 51 = 42
    Number of processor patches = 9
    Number of processor faces = 548
    Number of boundary faces = 11624

Processor 11
    Number of cells = 5812
    Number of faces shared with processor 2 = 20
    Number of faces shared with processor 3 = 258
    Number of faces shared with processor 4 = 24
    Number of faces shared with processor 19 = 262
    Number of processor patches = 4
    Number of processor faces = 564
    Number of boundary faces = 11624

Processor 12
    Number of cells = 5812
    Number of faces shared with processor 4 = 103
    Number of faces shared with processor 5 = 8
    Number of faces shared with processor 13 = 52
    Number of faces shared with processor 19 = 17
    Number of faces shared with processor 20 = 108
    Number of faces shared with processor 27 = 28
    Number of faces shared with processor 35 = 10
    Number of processor patches = 7
    Number of processor faces = 326
    Number of boundary faces = 11624

Processor 13
    Number of cells = 5812
    Number of faces shared with processor 5 = 91
    Number of faces shared with processor 12 = 52
    Number of faces shared with processor 14 = 10
    Number of faces shared with processor 20 = 6
    Number of faces shared with processor 21 = 109
    Number of faces shared with processor 22 = 34
    Number of faces shared with processor 30 = 32
    Number of processor patches = 7
    Number of processor faces = 334
    Number of boundary faces = 11624

Processor 14
    Number of cells = 5812
    Number of faces shared with processor 5 = 28
    Number of faces shared with processor 6 = 152
    Number of faces shared with processor 13 = 10
    Number of faces shared with processor 15 = 39
    Number of faces shared with processor 22 = 154
    Number of faces shared with processor 23 = 1
    Number of processor patches = 6
    Number of processor faces = 384
    Number of boundary faces = 11624

Processor 15
    Number of cells = 5812
    Number of faces shared with processor 6 = 1
    Number of faces shared with processor 7 = 152
    Number of faces shared with processor 14 = 39
    Number of faces shared with processor 23 = 151
    Number of processor patches = 4
    Number of processor faces = 343
    Number of boundary faces = 11663

Processor 16
    Number of cells = 5812
    Number of faces shared with processor 8 = 156
    Number of faces shared with processor 17 = 16
    Number of faces shared with processor 24 = 156
    Number of faces shared with processor 25 = 22
    Number of processor patches = 4
    Number of processor faces = 350
    Number of boundary faces = 11662

Processor 17
    Number of cells = 5812
    Number of faces shared with processor 8 = 9
    Number of faces shared with processor 9 = 178
    Number of faces shared with processor 16 = 16
    Number of faces shared with processor 25 = 211
    Number of faces shared with processor 26 = 1
    Number of faces shared with processor 34 = 69
    Number of processor patches = 6
    Number of processor faces = 484
    Number of boundary faces = 11636

Processor 18
    Number of cells = 5812
    Number of faces shared with processor 9 = 11
    Number of faces shared with processor 10 = 257
    Number of faces shared with processor 26 = 208
    Number of faces shared with processor 51 = 23
    Number of processor patches = 4
    Number of processor faces = 499
    Number of boundary faces = 11685

Processor 19
    Number of cells = 5812
    Number of faces shared with processor 2 = 1
    Number of faces shared with processor 4 = 8
    Number of faces shared with processor 10 = 15
    Number of faces shared with processor 11 = 262
    Number of faces shared with processor 12 = 17
    Number of faces shared with processor 27 = 271
    Number of processor patches = 6
    Number of processor faces = 574
    Number of boundary faces = 11624

Processor 20
    Number of cells = 5812
    Number of faces shared with processor 12 = 108
    Number of faces shared with processor 13 = 6
    Number of faces shared with processor 21 = 28
    Number of faces shared with processor 28 = 223
    Number of faces shared with processor 35 = 25
    Number of faces shared with processor 37 = 29
    Number of faces shared with processor 43 = 14
    Number of processor patches = 7
    Number of processor faces = 433
    Number of boundary faces = 11921

Processor 21
    Number of cells = 5812
    Number of faces shared with processor 13 = 109
    Number of faces shared with processor 20 = 28
    Number of faces shared with processor 29 = 154
    Number of faces shared with processor 30 = 8
    Number of faces shared with processor 46 = 21
    Number of faces shared with processor 54 = 66
    Number of processor patches = 6
    Number of processor faces = 386
    Number of boundary faces = 11780

Processor 22
    Number of cells = 5812
    Number of faces shared with processor 13 = 34
    Number of faces shared with processor 14 = 154
    Number of faces shared with processor 23 = 38
    Number of faces shared with processor 30 = 160
    Number of faces shared with processor 31 = 2
    Number of processor patches = 5
    Number of processor faces = 388
    Number of boundary faces = 11624

Processor 23
    Number of cells = 5812
    Number of faces shared with processor 14 = 1
    Number of faces shared with processor 15 = 151
    Number of faces shared with processor 22 = 38
    Number of faces shared with processor 31 = 151
    Number of processor patches = 4
    Number of processor faces = 341
    Number of boundary faces = 11663

Processor 24
    Number of cells = 5812
    Number of faces shared with processor 16 = 156
    Number of faces shared with processor 25 = 9
    Number of faces shared with processor 32 = 158
    Number of faces shared with processor 33 = 28
    Number of processor patches = 4
    Number of processor faces = 351
    Number of boundary faces = 11663

Processor 25
    Number of cells = 5812
    Number of faces shared with processor 16 = 22
    Number of faces shared with processor 17 = 211
    Number of faces shared with processor 24 = 9
    Number of faces shared with processor 33 = 96
    Number of processor patches = 4
    Number of processor faces = 338
    Number of boundary faces = 11708

Processor 26
    Number of cells = 5812
    Number of faces shared with processor 9 = 26
    Number of faces shared with processor 17 = 1
    Number of faces shared with processor 18 = 208
    Number of faces shared with processor 34 = 125
    Number of processor patches = 4
    Number of processor faces = 360
    Number of boundary faces = 11680

Processor 27
    Number of cells = 5812
    Number of faces shared with processor 10 = 11
    Number of faces shared with processor 12 = 28
    Number of faces shared with processor 19 = 271
    Number of faces shared with processor 35 = 288
    Number of processor patches = 4
    Number of processor faces = 598
    Number of boundary faces = 11624

Processor 28
    Number of cells = 5812
    Number of faces shared with processor 20 = 223
    Number of faces shared with processor 36 = 219
    Number of faces shared with processor 37 = 9
    Number of faces shared with processor 45 = 9
    Number of faces shared with processor 51 = 34
    Number of processor patches = 5
    Number of processor faces = 494
    Number of boundary faces = 11636

Processor 29
    Number of cells = 5812
    Number of faces shared with processor 21 = 154
    Number of faces shared with processor 37 = 252
    Number of faces shared with processor 54 = 12
    Number of processor patches = 3
    Number of processor faces = 418
    Number of boundary faces = 11710

Processor 30
    Number of cells = 5812
    Number of faces shared with processor 13 = 32
    Number of faces shared with processor 21 = 8
    Number of faces shared with processor 22 = 160
    Number of faces shared with processor 31 = 32
    Number of faces shared with processor 38 = 58
    Number of faces shared with processor 39 = 26
    Number of faces shared with processor 47 = 2
    Number of processor patches = 7
    Number of processor faces = 318
    Number of boundary faces = 11806

Processor 31
    Number of cells = 5812
    Number of faces shared with processor 22 = 2
    Number of faces shared with processor 23 = 151
    Number of faces shared with processor 30 = 32
    Number of faces shared with processor 39 = 111
    Number of processor patches = 4
    Number of processor faces = 296
    Number of boundary faces = 11754

Processor 32
    Number of cells = 5812
    Number of faces shared with processor 24 = 158
    Number of faces shared with processor 33 = 29
    Number of faces shared with processor 40 = 156
    Number of faces shared with processor 41 = 9
    Number of processor patches = 4
    Number of processor faces = 352
    Number of boundary faces = 11660

Processor 33
    Number of cells = 5812
    Number of faces shared with processor 24 = 28
    Number of faces shared with processor 25 = 96
    Number of faces shared with processor 32 = 29
    Number of faces shared with processor 34 = 11
    Number of faces shared with processor 41 = 151
    Number of faces shared with processor 42 = 22
    Number of processor patches = 6
    Number of processor faces = 337
    Number of boundary faces = 11829

Processor 34
    Number of cells = 5812
    Number of faces shared with processor 17 = 69
    Number of faces shared with processor 26 = 125
    Number of faces shared with processor 33 = 11
    Number of faces shared with processor 42 = 159
    Number of faces shared with processor 51 = 34
    Number of processor patches = 5
    Number of processor faces = 398
    Number of boundary faces = 11816

Processor 35
    Number of cells = 5812
    Number of faces shared with processor 10 = 7
    Number of faces shared with processor 12 = 10
    Number of faces shared with processor 20 = 25
    Number of faces shared with processor 27 = 288
    Number of faces shared with processor 43 = 316
    Number of processor patches = 5
    Number of processor faces = 646
    Number of boundary faces = 11624

Processor 36
    Number of cells = 5812
    Number of faces shared with processor 28 = 219
    Number of faces shared with processor 44 = 211
    Number of faces shared with processor 45 = 23
    Number of faces shared with processor 51 = 12
    Number of faces shared with processor 59 = 19
    Number of processor patches = 5
    Number of processor faces = 484
    Number of boundary faces = 11624

Processor 37
    Number of cells = 5812
    Number of faces shared with processor 20 = 29
    Number of faces shared with processor 28 = 9
    Number of faces shared with processor 29 = 252
    Number of faces shared with processor 45 = 287
    Number of faces shared with processor 54 = 4
    Number of processor patches = 5
    Number of processor faces = 581
    Number of boundary faces = 11693

Processor 38
    Number of cells = 5812
    Number of faces shared with processor 30 = 58
    Number of faces shared with processor 46 = 184
    Number of faces shared with processor 47 = 43
    Number of processor patches = 3
    Number of processor faces = 285
    Number of boundary faces = 11707

Processor 39
    Number of cells = 5812
    Number of faces shared with processor 30 = 26
    Number of faces shared with processor 31 = 111
    Number of faces shared with processor 47 = 181
    Number of processor patches = 3
    Number of processor faces = 318
    Number of boundary faces = 11722

Processor 40
    Number of cells = 5812
    Number of faces shared with processor 32 = 156
    Number of faces shared with processor 41 = 32
    Number of faces shared with processor 48 = 156
    Number of faces shared with processor 49 = 5
    Number of processor patches = 4
    Number of processor faces = 349
    Number of boundary faces = 11661

Processor 41
    Number of cells = 5812
    Number of faces shared with processor 32 = 9
    Number of faces shared with processor 33 = 151
    Number of faces shared with processor 40 = 32
    Number of faces shared with processor 42 = 29
    Number of faces shared with processor 49 = 148
    Number of faces shared with processor 50 = 9
    Number of processor patches = 6
    Number of processor faces = 378
    Number of boundary faces = 11624

Processor 42
    Number of cells = 5812
    Number of faces shared with processor 33 = 22
    Number of faces shared with processor 34 = 159
    Number of faces shared with processor 41 = 29
    Number of faces shared with processor 50 = 141
    Number of faces shared with processor 51 = 9
    Number of faces shared with processor 59 = 24
    Number of processor patches = 6
    Number of processor faces = 384
    Number of boundary faces = 11624

Processor 43
    Number of cells = 5812
    Number of faces shared with processor 10 = 10
    Number of faces shared with processor 20 = 14
    Number of faces shared with processor 35 = 316
    Number of faces shared with processor 51 = 148
    Number of processor patches = 4
    Number of processor faces = 488
    Number of boundary faces = 11796

Processor 44
    Number of cells = 5812
    Number of faces shared with processor 36 = 211
    Number of faces shared with processor 45 = 18
    Number of faces shared with processor 52 = 209
    Number of faces shared with processor 53 = 8
    Number of faces shared with processor 59 = 28
    Number of processor patches = 5
    Number of processor faces = 474
    Number of boundary faces = 11624

Processor 45
    Number of cells = 5812
    Number of faces shared with processor 28 = 9
    Number of faces shared with processor 36 = 23
    Number of faces shared with processor 37 = 287
    Number of faces shared with processor 44 = 18
    Number of faces shared with processor 53 = 246
    Number of faces shared with processor 54 = 4
    Number of faces shared with processor 62 = 5
    Number of processor patches = 7
    Number of processor faces = 592
    Number of boundary faces = 11624

Processor 46
    Number of cells = 5812
    Number of faces shared with processor 21 = 21
    Number of faces shared with processor 38 = 184
    Number of faces shared with processor 47 = 3
    Number of faces shared with processor 54 = 227
    Number of faces shared with processor 55 = 16
    Number of processor patches = 5
    Number of processor faces = 451
    Number of boundary faces = 11669

Processor 47
    Number of cells = 5812
    Number of faces shared with processor 30 = 2
    Number of faces shared with processor 38 = 43
    Number of faces shared with processor 39 = 181
    Number of faces shared with processor 46 = 3
    Number of faces shared with processor 55 = 165
    Number of processor patches = 5
    Number of processor faces = 394
    Number of boundary faces = 11658

Processor 48
    Number of cells = 5812
    Number of faces shared with processor 40 = 156
    Number of faces shared with processor 49 = 36
    Number of faces shared with processor 56 = 157
    Number of faces shared with processor 57 = 2
    Number of processor patches = 4
    Number of processor faces = 351
    Number of boundary faces = 11661

Processor 49
    Number of cells = 5812
    Number of faces shared with processor 40 = 5
    Number of faces shared with processor 41 = 148
    Number of faces shared with processor 48 = 36
    Number of faces shared with processor 50 = 36
    Number of faces shared with processor 57 = 148
    Number of faces shared with processor 58 = 3
    Number of processor patches = 6
    Number of processor faces = 376
    Number of boundary faces = 11624

Processor 50
    Number of cells = 5812
    Number of faces shared with processor 41 = 9
    Number of faces shared with processor 42 = 141
    Number of faces shared with processor 49 = 36
    Number of faces shared with processor 58 = 137
    Number of faces shared with processor 59 = 41
    Number of processor patches = 5
    Number of processor faces = 364
    Number of boundary faces = 11624

Processor 51
    Number of cells = 5812
    Number of faces shared with processor 10 = 42
    Number of faces shared with processor 18 = 23
    Number of faces shared with processor 28 = 34
    Number of faces shared with processor 34 = 34
    Number of faces shared with processor 36 = 12
    Number of faces shared with processor 42 = 9
    Number of faces shared with processor 43 = 148
    Number of faces shared with processor 59 = 58
    Number of processor patches = 8
    Number of processor faces = 360
    Number of boundary faces = 11762

Processor 52
    Number of cells = 5812
    Number of faces shared with processor 44 = 209
    Number of faces shared with processor 53 = 27
    Number of faces shared with processor 59 = 29
    Number of faces shared with processor 60 = 209
    Number of faces shared with processor 61 = 2
    Number of processor patches = 5
    Number of processor faces = 476
    Number of boundary faces = 11624

Processor 53
    Number of cells = 5812
    Number of faces shared with processor 44 = 8
    Number of faces shared with processor 45 = 246
    Number of faces shared with processor 52 = 27
    Number of faces shared with processor 61 = 227
    Number of faces shared with processor 62 = 16
    Number of processor patches = 5
    Number of processor faces = 524
    Number of boundary faces = 11624

Processor 54
    Number of cells = 5812
    Number of faces shared with processor 21 = 66
    Number of faces shared with processor 29 = 12
    Number of faces shared with processor 37 = 4
    Number of faces shared with processor 45 = 4
    Number of faces shared with processor 46 = 227
    Number of faces shared with processor 55 = 24
    Number of faces shared with processor 62 = 169
    Number of faces shared with processor 63 = 4
    Number of processor patches = 8
    Number of processor faces = 510
    Number of boundary faces = 11624

Processor 55
    Number of cells = 5812
    Number of faces shared with processor 46 = 16
    Number of faces shared with processor 47 = 165
    Number of faces shared with processor 54 = 24
    Number of faces shared with processor 63 = 162
    Number of processor patches = 4
    Number of processor faces = 367
    Number of boundary faces = 11659

Processor 56
    Number of cells = 5816
    Number of faces shared with processor 48 = 157
    Number of faces shared with processor 57 = 40
    Number of processor patches = 2
    Number of processor faces = 197
    Number of boundary faces = 11827

Processor 57
    Number of cells = 5816
    Number of faces shared with processor 48 = 2
    Number of faces shared with processor 49 = 148
    Number of faces shared with processor 56 = 40
    Number of faces shared with processor 58 = 41
    Number of processor patches = 4
    Number of processor faces = 231
    Number of boundary faces = 11777

Processor 58
    Number of cells = 5816
    Number of faces shared with processor 49 = 3
    Number of faces shared with processor 50 = 137
    Number of faces shared with processor 57 = 41
    Number of faces shared with processor 59 = 43
    Number of processor patches = 4
    Number of processor faces = 224
    Number of boundary faces = 11768

Processor 59
    Number of cells = 5816
    Number of faces shared with processor 36 = 19
    Number of faces shared with processor 42 = 24
    Number of faces shared with processor 44 = 28
    Number of faces shared with processor 50 = 41
    Number of faces shared with processor 51 = 58
    Number of faces shared with processor 52 = 29
    Number of faces shared with processor 58 = 43
    Number of faces shared with processor 60 = 29
    Number of processor patches = 8
    Number of processor faces = 271
    Number of boundary faces = 11687

Processor 60
    Number of cells = 5816
    Number of faces shared with processor 52 = 209
    Number of faces shared with processor 59 = 29
    Number of faces shared with processor 61 = 29
    Number of processor patches = 3
    Number of processor faces = 267
    Number of boundary faces = 11841

Processor 61
    Number of cells = 5816
    Number of faces shared with processor 52 = 2
    Number of faces shared with processor 53 = 227
    Number of faces shared with processor 60 = 29
    Number of faces shared with processor 62 = 22
    Number of processor patches = 4
    Number of processor faces = 280
    Number of boundary faces = 11850

Processor 62
    Number of cells = 5816
    Number of faces shared with processor 45 = 5
    Number of faces shared with processor 53 = 16
    Number of faces shared with processor 54 = 169
    Number of faces shared with processor 61 = 22
    Number of faces shared with processor 63 = 35
    Number of processor patches = 5
    Number of processor faces = 247
    Number of boundary faces = 11793

Processor 63
    Number of cells = 5816
    Number of faces shared with processor 54 = 4
    Number of faces shared with processor 55 = 162
    Number of faces shared with processor 62 = 35
    Number of processor patches = 3
    Number of processor faces = 201
    Number of boundary faces = 11827

Number of processor faces = 11959
Max number of cells = 5816 (0.0602151% above average 5812.5)
Max number of processor patches = 9 (84.6154% above average 4.875)
Max number of faces between processors = 646 (72.8573% above average 373.719)

Time = 0

Processor 0: field transfer
Processor 1: field transfer
Processor 2: field transfer
Processor 3: field transfer
Processor 4: field transfer
Processor 5: field transfer
Processor 6: field transfer
Processor 7: field transfer
Processor 8: field transfer
Processor 9: field transfer
Processor 10: field transfer
Processor 11: field transfer
Processor 12: field transfer
Processor 13: field transfer
Processor 14: field transfer
Processor 15: field transfer
Processor 16: field transfer
Processor 17: field transfer
Processor 18: field transfer
Processor 19: field transfer
Processor 20: field transfer
Processor 21: field transfer
Processor 22: field transfer
Processor 23: field transfer
Processor 24: field transfer
Processor 25: field transfer
Processor 26: field transfer
Processor 27: field transfer
Processor 28: field transfer
Processor 29: field transfer
Processor 30: field transfer
Processor 31: field transfer
Processor 32: field transfer
Processor 33: field transfer
Processor 34: field transfer
Processor 35: field transfer
Processor 36: field transfer
Processor 37: field transfer
Processor 38: field transfer
Processor 39: field transfer
Processor 40: field transfer
Processor 41: field transfer
Processor 42: field transfer
Processor 43: field transfer
Processor 44: field transfer
Processor 45: field transfer
Processor 46: field transfer
Processor 47: field transfer
Processor 48: field transfer
Processor 49: field transfer
Processor 50: field transfer
Processor 51: field transfer
Processor 52: field transfer
Processor 53: field transfer
Processor 54: field transfer
Processor 55: field transfer
Processor 56: field transfer
Processor 57: field transfer
Processor 58: field transfer
Processor 59: field transfer
Processor 60: field transfer
Processor 61: field transfer
Processor 62: field transfer
Processor 63: field transfer

End

