/*---------------------------------------------------------------------------*\
  =========                 |
  \\      /  F ield         | OpenFOAM: The Open Source CFD Toolbox
   \\    /   O peration     | Website:  https://openfoam.org
    \\  /    A nd           | Version:  7
     \\/     M anipulation  |
\*---------------------------------------------------------------------------*/
Build  : 7-49b2b3b8b082
Exec   : blockMesh
Date   : May 09 2022
Time   : 14:42:29
Host   : "c415-042.stampede2.tacc.utexas.edu"
PID    : 238092
I/O    : uncollated
Case   : /work2/07674/bradenp/stampede2/diamond-airfoil/simulations/unorganized/test_new_mesh
nProcs : 1
sigFpe : Enabling floating point exception trapping (FOAM_SIGFPE).
fileModificationChecking : Monitoring run-time modified files using timeStampMaster (fileModificationSkew 10)
allowSystemOperations : Allowing user-supplied system call operations

// * * * * * * * * * * * * * * * * * * * * * * * * * * * * * * * * * * * * * //
Create time

Creating block mesh from
    "/work2/07674/bradenp/stampede2/diamond-airfoil/simulations/unorganized/test_new_mesh/system/blockMeshDict"
No non-linear block edges defined
No non-planar block faces defined
Creating topology blocks
Creating topology patches

Creating block mesh topology
--> FOAM Warning : 
    From function Foam::polyMesh::polyMesh(const Foam::IOobject &, Foam::Field<Foam::Vector<double>> &&, const Foam::List<Foam::cellShape> &, const Foam::List<Foam::List<Foam::face>> &, const Foam::List<Foam::word> &, const Foam::PtrList<Foam::dictionary> &, const Foam::word &, const Foam::word &, bool)
    in file meshes/polyMesh/polyMeshFromShapeMesh.C at line 873
    Found 24 undefined faces in mesh; adding to default patch.

Check topology

	Basic statistics
		Number of internal faces : 12
		Number of boundary faces : 48
		Number of defined boundary faces : 48
		Number of undefined boundary faces : 0
	Checking patch -> block consistency

Creating block offsets
Creating merge list .

Creating polyMesh from blockMesh
Creating points with scale 1
    Block 0 cell size :
        i : 0.00313325 .. 0.156662
        j : 0.0063604 .. 0.63604
        k : 0.1
    Block 1 cell size :
        i : 0.0063604 .. 0.63604 0.00635927 .. 0.635927 0.0063604 .. 0.63604 0.00635927 .. 0.635927 
        j : 0.00201848 .. 0.0201848 0.00201778 .. 0.0201778 0.00201848 .. 0.0201848 0.00201778 .. 0.0201778 
        k : 0.1
    Block 2 cell size :
        i : 0.458089 .. 0.00458089 0.458202 .. 0.00458202 0.458089 .. 0.00458089 0.458202 .. 0.00458202 
        j : 0.00158111 .. 0.0158111 0.00158518 .. 0.0158518 0.00158111 .. 0.0158111 0.00158518 .. 0.0158518 
        k : 0.1
    Block 3 cell size :
        i : 0.00458089 .. 0.458089 0.00458084 .. 0.458084 0.00458089 .. 0.458089 0.00458084 .. 0.458084 
        j : 0.00201848 .. 0.0201848
        k : 0.1
    Block 4 cell size :
        i : 0.45027 .. 0.0045027 0.450275 .. 0.00450275 0.45027 .. 0.0045027 0.450275 .. 0.00450275 
        j : 0.00201773 .. 0.0201773
        k : 0.1
    Block 5 cell size :
        i : 0.00618371 .. 0.309185
        j : 0.45027 .. 0.0045027
        k : 0.1
    Block 6 cell size :
        i : 0.00618371 .. 0.309185
        j : 0.0063604 .. 0.63604
        k : 0.1
    Block 7 cell size :
        i : 0.0063604 .. 0.63604 0.00635927 .. 0.635927 0.0063604 .. 0.63604 0.00635927 .. 0.635927 
        j : 0.00201848 .. 0.0201848 0.00201778 .. 0.0201778 0.00201848 .. 0.0201848 0.00201778 .. 0.0201778 
        k : 0.1
    Block 8 cell size :
        i : 0.458089 .. 0.00458089 0.458202 .. 0.00458202 0.458089 .. 0.00458089 0.458202 .. 0.00458202 
        j : 0.00158111 .. 0.0158111 0.00158518 .. 0.0158518 0.00158111 .. 0.0158111 0.00158518 .. 0.0158518 
        k : 0.1
    Block 9 cell size :
        i : 0.00458089 .. 0.458089 0.00458084 .. 0.458084 0.00458089 .. 0.458089 0.00458084 .. 0.458084 
        j : 0.00201848 .. 0.0201848
        k : 0.1
    Block 10 cell size :
        i : 0.45027 .. 0.0045027 0.450275 .. 0.00450275 0.45027 .. 0.0045027 0.450275 .. 0.00450275 
        j : 0.00201773 .. 0.0201773
        k : 0.1
    Block 11 cell size :
        i : 0.00313325 .. 0.156662
        j : 0.45027 .. 0.0045027
        k : 0.1
Creating cells
Creating patches

There are no merge patch pairs edges

Writing polyMesh
----------------
Mesh Information
----------------
  boundingBox: (-6 -6 -0.05) (6 6 0.05)
  nPoints: 187640
  nCells: 92000
  nFaces: 369820
  nInternalFaces: 182180
----------------
Patches
----------------
  patch 0 (start: 182180 size: 100) name: inlet
  patch 1 (start: 182280 size: 100) name: outlet
  patch 2 (start: 182380 size: 1600) name: airfoil
  patch 3 (start: 183980 size: 920) name: top
  patch 4 (start: 184900 size: 920) name: bottom
  patch 5 (start: 185820 size: 184000) name: defaultFaces

End

