/*---------------------------------------------------------------------------*\
  =========                 |
  \\      /  F ield         | OpenFOAM: The Open Source CFD Toolbox
   \\    /   O peration     | Website:  https://openfoam.org
    \\  /    A nd           | Version:  7
     \\/     M anipulation  |
\*---------------------------------------------------------------------------*/
Build  : 7-49b2b3b8b082
Exec   : checkMesh
Date   : May 09 2022
Time   : 18:58:10
Host   : "c403-132.stampede2.tacc.utexas.edu"
PID    : 230744
I/O    : uncollated
Case   : /work2/07674/bradenp/stampede2/diamond-airfoil/simulations/unorganized/test_new_mesh
nProcs : 1
sigFpe : Enabling floating point exception trapping (FOAM_SIGFPE).
fileModificationChecking : Monitoring run-time modified files using timeStampMaster (fileModificationSkew 10)
allowSystemOperations : Allowing user-supplied system call operations

// * * * * * * * * * * * * * * * * * * * * * * * * * * * * * * * * * * * * * //
Create time

Create polyMesh for time = 0

Time = 0

Mesh stats
    points:           529200
    internal points:  0
    faces:            1052100
    internal faces:   522900
    cells:            262500
    faces per cell:   6
    boundary patches: 6
    point zones:      0
    face zones:       0
    cell zones:       0

Overall number of cells of each type:
    hexahedra:     262500
    prisms:        0
    wedges:        0
    pyramids:      0
    tet wedges:    0
    tetrahedra:    0
    polyhedra:     0

Checking topology...
    Boundary definition OK.
    Cell to face addressing OK.
    Point usage OK.
    Upper triangular ordering OK.
    Face vertices OK.
    Number of regions: 1 (OK).

Checking patch topology for multiply connected surfaces...
    Patch               Faces    Points   Surface topology                  
    inlet               250      502      ok (non-closed singly connected)  
    outlet              250      502      ok (non-closed singly connected)  
    airfoil             1600     3200     ok (non-closed singly connected)  
    top                 1050     2102     ok (non-closed singly connected)  
    bottom              1050     2102     ok (non-closed singly connected)  
    defaultFaces        525000   529200   ok (non-closed singly connected)  

Checking geometry...
    Overall domain bounding box (-6 -6 -0.05) (6 6 0.05)
    Mesh has 2 geometric (non-empty/wedge) directions (1 1 0)
    Mesh has 2 solution (non-empty) directions (1 1 0)
    All edges aligned with or perpendicular to non-empty directions.
    Boundary openness (4.54418e-18 -2.95204e-18 -9.29581e-16) OK.
    Max cell openness = 2.21982e-16 OK.
    Max aspect ratio = 108.685 OK.
    Minimum face area = 1.39481e-05. Maximum face area = 0.0176497.  Face area magnitudes OK.
    Min volume = 1.39481e-06. Max volume = 0.00103636.  Total volume = 13.8.  Cell volumes OK.
    Mesh non-orthogonality Max: 36.4117 average: 16.9366
    Non-orthogonality check OK.
    Face pyramids OK.
    Max skewness = 1.8455 OK.
    Coupled point location match (average 0) OK.

Mesh OK.

End

