/*---------------------------------------------------------------------------*\
  =========                 |
  \\      /  F ield         | OpenFOAM: The Open Source CFD Toolbox
   \\    /   O peration     | Website:  https://openfoam.org
    \\  /    A nd           | Version:  7
     \\/     M anipulation  |
\*---------------------------------------------------------------------------*/
Build  : 7-49b2b3b8b082
Exec   : checkMesh
Date   : May 09 2022
Time   : 14:48:21
Host   : "c469-093.stampede2.tacc.utexas.edu"
PID    : 227797
I/O    : uncollated
Case   : /work2/07674/bradenp/stampede2/diamond-airfoil/simulations/unorganized/test_new_mesh
nProcs : 1
sigFpe : Enabling floating point exception trapping (FOAM_SIGFPE).
fileModificationChecking : Monitoring run-time modified files using timeStampMaster (fileModificationSkew 10)
allowSystemOperations : Allowing user-supplied system call operations

// * * * * * * * * * * * * * * * * * * * * * * * * * * * * * * * * * * * * * //
Create time

Create polyMesh for time = 0

Time = 0

Mesh stats
    points:           291820
    internal points:  0
    faces:            577910
    internal faces:   286090
    cells:            144000
    faces per cell:   6
    boundary patches: 6
    point zones:      0
    face zones:       0
    cell zones:       0

Overall number of cells of each type:
    hexahedra:     144000
    prisms:        0
    wedges:        0
    pyramids:      0
    tet wedges:    0
    tetrahedra:    0
    polyhedra:     0

Checking topology...
    Boundary definition OK.
    Cell to face addressing OK.
    Point usage OK.
    Upper triangular ordering OK.
    Face vertices OK.
    Number of regions: 1 (OK).

Checking patch topology for multiply connected surfaces...
    Patch               Faces    Points   Surface topology                  
    inlet               150      302      ok (non-closed singly connected)  
    outlet              150      302      ok (non-closed singly connected)  
    airfoil             1600     3200     ok (non-closed singly connected)  
    top                 960      1922     ok (non-closed singly connected)  
    bottom              960      1922     ok (non-closed singly connected)  
    defaultFaces        288000   291820   ok (non-closed singly connected)  

Checking geometry...
    Overall domain bounding box (-6 -6 -0.05) (6 6 0.05)
    Mesh has 2 geometric (non-empty/wedge) directions (1 1 0)
    Mesh has 2 solution (non-empty) directions (1 1 0)
    All edges aligned with or perpendicular to non-empty directions.
    Boundary openness (-2.50087e-19 -7.4293e-18 -4.23997e-16) OK.
    Max cell openness = 2.2603e-16 OK.
    Max aspect ratio = 270.658 OK.
    Minimum face area = 4.87374e-06. Maximum face area = 0.0670421.  Face area magnitudes OK.
    Min volume = 4.87374e-07. Max volume = 0.00670421.  Total volume = 13.8.  Cell volumes OK.
    Mesh non-orthogonality Max: 38.4265 average: 21.0223
    Non-orthogonality check OK.
    Face pyramids OK.
    Max skewness = 1.31776 OK.
    Coupled point location match (average 0) OK.

Mesh OK.

End

