/*---------------------------------------------------------------------------*\
  =========                 |
  \\      /  F ield         | OpenFOAM: The Open Source CFD Toolbox
   \\    /   O peration     | Website:  https://openfoam.org
    \\  /    A nd           | Version:  7
     \\/     M anipulation  |
\*---------------------------------------------------------------------------*/
Build  : 7-49b2b3b8b082
Exec   : blockMesh
Date   : May 09 2022
Time   : 16:12:48
Host   : "c438-093.stampede2.tacc.utexas.edu"
PID    : 17310
I/O    : uncollated
Case   : /work2/07674/bradenp/stampede2/diamond-airfoil/simulations/unorganized/test_new_mesh
nProcs : 1
sigFpe : Enabling floating point exception trapping (FOAM_SIGFPE).
fileModificationChecking : Monitoring run-time modified files using timeStampMaster (fileModificationSkew 10)
allowSystemOperations : Allowing user-supplied system call operations

// * * * * * * * * * * * * * * * * * * * * * * * * * * * * * * * * * * * * * //
Create time

Creating block mesh from
    "/work2/07674/bradenp/stampede2/diamond-airfoil/simulations/unorganized/test_new_mesh/system/blockMeshDict"
No non-linear block edges defined
No non-planar block faces defined
Creating topology blocks
Creating topology patches

Creating block mesh topology
--> FOAM Warning : 
    From function Foam::polyMesh::polyMesh(const Foam::IOobject &, Foam::Field<Foam::Vector<double>> &&, const Foam::List<Foam::cellShape> &, const Foam::List<Foam::List<Foam::face>> &, const Foam::List<Foam::word> &, const Foam::PtrList<Foam::dictionary> &, const Foam::word &, const Foam::word &, bool)
    in file meshes/polyMesh/polyMeshFromShapeMesh.C at line 873
    Found 24 undefined faces in mesh; adding to default patch.

Check topology

	Basic statistics
		Number of internal faces : 12
		Number of boundary faces : 48
		Number of defined boundary faces : 48
		Number of undefined boundary faces : 0
	Checking patch -> block consistency

Creating block offsets
Creating merge list .

Creating polyMesh from blockMesh
Creating points with scale 1
    Block 0 cell size :
        i : 0.00181841 .. 0.181841
        j : 0.00322423 .. 0.322423
        k : 0.1
    Block 1 cell size :
        i : 0.00322423 .. 0.322423 0.00322394 .. 0.322394 0.00322423 .. 0.322423 0.00322394 .. 0.322394 
        j : 0.00101761 .. 0.0152642 0.00101743 .. 0.0152615 0.00101761 .. 0.0152642 0.00101743 .. 0.0152615 
        k : 0.1
    Block 2 cell size :
        i : 0.232215 .. 0.00232215 0.232244 .. 0.00232244 0.232215 .. 0.00232215 0.232244 .. 0.00232244 
        j : 0.000797111 .. 0.0119567 0.000797639 .. 0.0119646 0.000797111 .. 0.0119567 0.000797639 .. 0.0119646 
        k : 0.1
    Block 3 cell size :
        i : 0.00232215 .. 0.232215
        j : 0.00101761 .. 0.0152642
        k : 0.1
    Block 4 cell size :
        i : 0.228252 .. 0.00228252
        j : 0.00101723 .. 0.0152585
        k : 0.1
    Block 5 cell size :
        i : 0.00157694 .. 0.0788468
        j : 0.228252 .. 0.00228252
        k : 0.1
    Block 6 cell size :
        i : 0.00157694 .. 0.0788468
        j : 0.00322423 .. 0.322423
        k : 0.1
    Block 7 cell size :
        i : 0.00322423 .. 0.322423 0.00322394 .. 0.322394 0.00322423 .. 0.322423 0.00322394 .. 0.322394 
        j : 0.00101761 .. 0.0152642 0.00101743 .. 0.0152615 0.00101761 .. 0.0152642 0.00101743 .. 0.0152615 
        k : 0.1
    Block 8 cell size :
        i : 0.232215 .. 0.00232215 0.232244 .. 0.00232244 0.232215 .. 0.00232215 0.232244 .. 0.00232244 
        j : 0.000797111 .. 0.0119567 0.000797639 .. 0.0119646 0.000797111 .. 0.0119567 0.000797639 .. 0.0119646 
        k : 0.1
    Block 9 cell size :
        i : 0.00232215 .. 0.232215
        j : 0.00101761 .. 0.0152642
        k : 0.1
    Block 10 cell size :
        i : 0.228252 .. 0.00228252
        j : 0.00101723 .. 0.0152585
        k : 0.1
    Block 11 cell size :
        i : 0.00181841 .. 0.181841
        j : 0.228252 .. 0.00228252
        k : 0.1
Creating cells
Creating patches

There are no merge patch pairs edges

Writing polyMesh
----------------
Mesh Information
----------------
  boundingBox: (-6 -6 -0.05) (6 6 0.05)
  nPoints: 581680
  nCells: 288000
  nFaces: 1154840
  nInternalFaces: 573160
----------------
Patches
----------------
  patch 0 (start: 573160 size: 200) name: inlet
  patch 1 (start: 573360 size: 200) name: outlet
  patch 2 (start: 573560 size: 2400) name: airfoil
  patch 3 (start: 575960 size: 1440) name: top
  patch 4 (start: 577400 size: 1440) name: bottom
  patch 5 (start: 578840 size: 576000) name: defaultFaces

End

