/*---------------------------------------------------------------------------*\
  =========                 |
  \\      /  F ield         | OpenFOAM: The Open Source CFD Toolbox
   \\    /   O peration     | Website:  https://openfoam.org
    \\  /    A nd           | Version:  7
     \\/     M anipulation  |
\*---------------------------------------------------------------------------*/
Build  : 7-49b2b3b8b082
Exec   : decomposePar
Date   : May 09 2022
Time   : 18:59:35
Host   : "c403-132.stampede2.tacc.utexas.edu"
PID    : 230816
I/O    : uncollated
Case   : /work2/07674/bradenp/stampede2/diamond-airfoil/simulations/unorganized/test_new_mesh
nProcs : 1
sigFpe : Enabling floating point exception trapping (FOAM_SIGFPE).
fileModificationChecking : Monitoring run-time modified files using timeStampMaster (fileModificationSkew 10)
allowSystemOperations : Allowing user-supplied system call operations

// * * * * * * * * * * * * * * * * * * * * * * * * * * * * * * * * * * * * * //
Create time



Decomposing mesh region0

Create mesh

Calculating distribution of cells
 Foam::decompositionMethod::New 
{
    numberOfSubdomains 64;
    method          hierarchical;
    simpleCoeffs
    {
        n               ( 8 8 1 );
        delta           0.001;
    }
    hierarchicalCoeffs
    {
        n               ( 8 8 1 );
        delta           0.001;
        order           xyz;
    }
}

Selecting decompositionMethod hierarchical

Finished decomposition in 0.3 s

Calculating original mesh data

Distributing cells to processors

Distributing faces to processors

Distributing points to processors

Constructing processor meshes

Processor 0
    Number of cells = 4101
    Number of faces shared with processor 1 = 30
    Number of faces shared with processor 8 = 133
    Number of faces shared with processor 9 = 3
    Number of processor patches = 3
    Number of processor faces = 166
    Number of boundary faces = 8364

Processor 1
    Number of cells = 4101
    Number of faces shared with processor 0 = 30
    Number of faces shared with processor 2 = 23
    Number of faces shared with processor 9 = 140
    Number of faces shared with processor 10 = 10
    Number of processor patches = 4
    Number of processor faces = 203
    Number of boundary faces = 8339

Processor 2
    Number of cells = 4101
    Number of faces shared with processor 1 = 23
    Number of faces shared with processor 3 = 24
    Number of faces shared with processor 10 = 161
    Number of faces shared with processor 11 = 6
    Number of processor patches = 4
    Number of processor faces = 214
    Number of boundary faces = 8356

Processor 3
    Number of cells = 4101
    Number of faces shared with processor 2 = 24
    Number of faces shared with processor 4 = 24
    Number of faces shared with processor 11 = 173
    Number of processor patches = 3
    Number of processor faces = 221
    Number of boundary faces = 8375

Processor 4
    Number of cells = 4101
    Number of faces shared with processor 3 = 24
    Number of faces shared with processor 5 = 35
    Number of faces shared with processor 11 = 24
    Number of faces shared with processor 12 = 79
    Number of faces shared with processor 13 = 17
    Number of faces shared with processor 19 = 5
    Number of processor patches = 6
    Number of processor faces = 184
    Number of boundary faces = 8280

Processor 5
    Number of cells = 4101
    Number of faces shared with processor 4 = 35
    Number of faces shared with processor 6 = 34
    Number of faces shared with processor 13 = 121
    Number of faces shared with processor 14 = 1
    Number of processor patches = 4
    Number of processor faces = 191
    Number of boundary faces = 8321

Processor 6
    Number of cells = 4101
    Number of faces shared with processor 5 = 34
    Number of faces shared with processor 7 = 32
    Number of faces shared with processor 14 = 126
    Number of processor patches = 3
    Number of processor faces = 192
    Number of boundary faces = 8328

Processor 7
    Number of cells = 4102
    Number of faces shared with processor 6 = 32
    Number of faces shared with processor 15 = 133
    Number of processor patches = 2
    Number of processor faces = 165
    Number of boundary faces = 8367

Processor 8
    Number of cells = 4101
    Number of faces shared with processor 0 = 133
    Number of faces shared with processor 9 = 26
    Number of faces shared with processor 16 = 134
    Number of faces shared with processor 17 = 6
    Number of processor patches = 4
    Number of processor faces = 299
    Number of boundary faces = 8233

Processor 9
    Number of cells = 4101
    Number of faces shared with processor 0 = 3
    Number of faces shared with processor 1 = 140
    Number of faces shared with processor 8 = 26
    Number of faces shared with processor 10 = 13
    Number of faces shared with processor 17 = 145
    Number of faces shared with processor 18 = 19
    Number of faces shared with processor 26 = 2
    Number of processor patches = 7
    Number of processor faces = 348
    Number of boundary faces = 8202

Processor 10
    Number of cells = 4101
    Number of faces shared with processor 1 = 10
    Number of faces shared with processor 2 = 161
    Number of faces shared with processor 9 = 13
    Number of faces shared with processor 11 = 17
    Number of faces shared with processor 18 = 169
    Number of faces shared with processor 19 = 14
    Number of processor patches = 6
    Number of processor faces = 384
    Number of boundary faces = 8202

Processor 11
    Number of cells = 4101
    Number of faces shared with processor 2 = 6
    Number of faces shared with processor 3 = 173
    Number of faces shared with processor 4 = 24
    Number of faces shared with processor 10 = 17
    Number of faces shared with processor 19 = 174
    Number of processor patches = 5
    Number of processor faces = 394
    Number of boundary faces = 8202

Processor 12
    Number of cells = 4101
    Number of faces shared with processor 4 = 79
    Number of faces shared with processor 13 = 17
    Number of faces shared with processor 19 = 19
    Number of faces shared with processor 20 = 79
    Number of faces shared with processor 21 = 34
    Number of faces shared with processor 27 = 24
    Number of faces shared with processor 29 = 2
    Number of faces shared with processor 35 = 10
    Number of processor patches = 8
    Number of processor faces = 264
    Number of boundary faces = 8202

Processor 13
    Number of cells = 4101
    Number of faces shared with processor 4 = 17
    Number of faces shared with processor 5 = 121
    Number of faces shared with processor 12 = 17
    Number of faces shared with processor 14 = 32
    Number of faces shared with processor 21 = 121
    Number of faces shared with processor 22 = 2
    Number of processor patches = 6
    Number of processor faces = 310
    Number of boundary faces = 8202

Processor 14
    Number of cells = 4101
    Number of faces shared with processor 5 = 1
    Number of faces shared with processor 6 = 126
    Number of faces shared with processor 13 = 32
    Number of faces shared with processor 15 = 31
    Number of faces shared with processor 22 = 126
    Number of faces shared with processor 23 = 2
    Number of processor patches = 6
    Number of processor faces = 318
    Number of boundary faces = 8202

Processor 15
    Number of cells = 4102
    Number of faces shared with processor 7 = 133
    Number of faces shared with processor 14 = 31
    Number of faces shared with processor 23 = 133
    Number of processor patches = 3
    Number of processor faces = 297
    Number of boundary faces = 8235

Processor 16
    Number of cells = 4101
    Number of faces shared with processor 8 = 134
    Number of faces shared with processor 17 = 21
    Number of faces shared with processor 24 = 136
    Number of faces shared with processor 25 = 10
    Number of processor patches = 4
    Number of processor faces = 301
    Number of boundary faces = 8233

Processor 17
    Number of cells = 4101
    Number of faces shared with processor 8 = 6
    Number of faces shared with processor 9 = 145
    Number of faces shared with processor 16 = 21
    Number of faces shared with processor 25 = 154
    Number of faces shared with processor 26 = 15
    Number of faces shared with processor 34 = 17
    Number of faces shared with processor 42 = 4
    Number of processor patches = 7
    Number of processor faces = 362
    Number of boundary faces = 8202

Processor 18
    Number of cells = 4101
    Number of faces shared with processor 9 = 19
    Number of faces shared with processor 10 = 169
    Number of faces shared with processor 19 = 9
    Number of faces shared with processor 26 = 183
    Number of faces shared with processor 27 = 22
    Number of faces shared with processor 35 = 2
    Number of processor patches = 6
    Number of processor faces = 404
    Number of boundary faces = 8202

Processor 19
    Number of cells = 4101
    Number of faces shared with processor 4 = 5
    Number of faces shared with processor 10 = 14
    Number of faces shared with processor 11 = 174
    Number of faces shared with processor 12 = 19
    Number of faces shared with processor 18 = 9
    Number of faces shared with processor 27 = 175
    Number of processor patches = 6
    Number of processor faces = 396
    Number of boundary faces = 8202

Processor 20
    Number of cells = 4101
    Number of faces shared with processor 12 = 79
    Number of faces shared with processor 28 = 92
    Number of faces shared with processor 29 = 33
    Number of faces shared with processor 35 = 15
    Number of faces shared with processor 37 = 12
    Number of faces shared with processor 43 = 24
    Number of faces shared with processor 45 = 17
    Number of faces shared with processor 51 = 5
    Number of processor patches = 8
    Number of processor faces = 277
    Number of boundary faces = 8355

Processor 21
    Number of cells = 4101
    Number of faces shared with processor 12 = 34
    Number of faces shared with processor 13 = 121
    Number of faces shared with processor 22 = 31
    Number of faces shared with processor 29 = 121
    Number of faces shared with processor 30 = 3
    Number of processor patches = 5
    Number of processor faces = 310
    Number of boundary faces = 8202

Processor 22
    Number of cells = 4101
    Number of faces shared with processor 13 = 2
    Number of faces shared with processor 14 = 126
    Number of faces shared with processor 21 = 31
    Number of faces shared with processor 23 = 30
    Number of faces shared with processor 30 = 127
    Number of faces shared with processor 31 = 4
    Number of processor patches = 6
    Number of processor faces = 320
    Number of boundary faces = 8202

Processor 23
    Number of cells = 4102
    Number of faces shared with processor 14 = 2
    Number of faces shared with processor 15 = 133
    Number of faces shared with processor 22 = 30
    Number of faces shared with processor 31 = 132
    Number of processor patches = 4
    Number of processor faces = 297
    Number of boundary faces = 8235

Processor 24
    Number of cells = 4101
    Number of faces shared with processor 16 = 136
    Number of faces shared with processor 25 = 17
    Number of faces shared with processor 32 = 138
    Number of faces shared with processor 33 = 16
    Number of processor patches = 4
    Number of processor faces = 307
    Number of boundary faces = 8233

Processor 25
    Number of cells = 4101
    Number of faces shared with processor 16 = 10
    Number of faces shared with processor 17 = 154
    Number of faces shared with processor 24 = 17
    Number of faces shared with processor 33 = 168
    Number of faces shared with processor 42 = 41
    Number of processor patches = 5
    Number of processor faces = 390
    Number of boundary faces = 8202

Processor 26
    Number of cells = 4101
    Number of faces shared with processor 9 = 2
    Number of faces shared with processor 17 = 15
    Number of faces shared with processor 18 = 183
    Number of faces shared with processor 34 = 203
    Number of faces shared with processor 35 = 19
    Number of faces shared with processor 43 = 18
    Number of processor patches = 6
    Number of processor faces = 440
    Number of boundary faces = 8202

Processor 27
    Number of cells = 4101
    Number of faces shared with processor 12 = 24
    Number of faces shared with processor 18 = 22
    Number of faces shared with processor 19 = 175
    Number of faces shared with processor 35 = 179
    Number of processor patches = 4
    Number of processor faces = 400
    Number of boundary faces = 8202

Processor 28
    Number of cells = 4101
    Number of faces shared with processor 20 = 92
    Number of faces shared with processor 36 = 224
    Number of faces shared with processor 45 = 14
    Number of faces shared with processor 51 = 20
    Number of faces shared with processor 53 = 1
    Number of processor patches = 5
    Number of processor faces = 351
    Number of boundary faces = 8339

Processor 29
    Number of cells = 4101
    Number of faces shared with processor 12 = 2
    Number of faces shared with processor 20 = 33
    Number of faces shared with processor 21 = 121
    Number of faces shared with processor 30 = 29
    Number of faces shared with processor 37 = 122
    Number of faces shared with processor 38 = 5
    Number of processor patches = 6
    Number of processor faces = 312
    Number of boundary faces = 8202

Processor 30
    Number of cells = 4101
    Number of faces shared with processor 21 = 3
    Number of faces shared with processor 22 = 127
    Number of faces shared with processor 29 = 29
    Number of faces shared with processor 31 = 27
    Number of faces shared with processor 38 = 127
    Number of faces shared with processor 39 = 5
    Number of processor patches = 6
    Number of processor faces = 318
    Number of boundary faces = 8202

Processor 31
    Number of cells = 4102
    Number of faces shared with processor 22 = 4
    Number of faces shared with processor 23 = 132
    Number of faces shared with processor 30 = 27
    Number of faces shared with processor 39 = 132
    Number of processor patches = 4
    Number of processor faces = 295
    Number of boundary faces = 8235

Processor 32
    Number of cells = 4101
    Number of faces shared with processor 24 = 138
    Number of faces shared with processor 33 = 25
    Number of faces shared with processor 40 = 129
    Number of faces shared with processor 41 = 3
    Number of processor patches = 4
    Number of processor faces = 295
    Number of boundary faces = 8295

Processor 33
    Number of cells = 4101
    Number of faces shared with processor 24 = 16
    Number of faces shared with processor 25 = 168
    Number of faces shared with processor 32 = 25
    Number of faces shared with processor 41 = 122
    Number of faces shared with processor 42 = 7
    Number of processor patches = 5
    Number of processor faces = 338
    Number of boundary faces = 8458

Processor 34
    Number of cells = 4101
    Number of faces shared with processor 17 = 17
    Number of faces shared with processor 26 = 203
    Number of faces shared with processor 42 = 144
    Number of faces shared with processor 43 = 2
    Number of faces shared with processor 51 = 19
    Number of processor patches = 5
    Number of processor faces = 385
    Number of boundary faces = 8265

Processor 35
    Number of cells = 4101
    Number of faces shared with processor 12 = 10
    Number of faces shared with processor 18 = 2
    Number of faces shared with processor 20 = 15
    Number of faces shared with processor 26 = 19
    Number of faces shared with processor 27 = 179
    Number of faces shared with processor 43 = 181
    Number of processor patches = 6
    Number of processor faces = 406
    Number of boundary faces = 8202

Processor 36
    Number of cells = 4101
    Number of faces shared with processor 28 = 224
    Number of faces shared with processor 44 = 221
    Number of faces shared with processor 51 = 21
    Number of faces shared with processor 53 = 16
    Number of processor patches = 4
    Number of processor faces = 482
    Number of boundary faces = 8202

Processor 37
    Number of cells = 4101
    Number of faces shared with processor 20 = 12
    Number of faces shared with processor 29 = 122
    Number of faces shared with processor 38 = 16
    Number of faces shared with processor 45 = 145
    Number of faces shared with processor 46 = 34
    Number of processor patches = 5
    Number of processor faces = 329
    Number of boundary faces = 8431

Processor 38
    Number of cells = 4101
    Number of faces shared with processor 29 = 5
    Number of faces shared with processor 30 = 127
    Number of faces shared with processor 37 = 16
    Number of faces shared with processor 39 = 27
    Number of faces shared with processor 46 = 154
    Number of faces shared with processor 47 = 9
    Number of processor patches = 6
    Number of processor faces = 338
    Number of boundary faces = 8430

Processor 39
    Number of cells = 4102
    Number of faces shared with processor 30 = 5
    Number of faces shared with processor 31 = 132
    Number of faces shared with processor 38 = 27
    Number of faces shared with processor 47 = 132
    Number of processor patches = 4
    Number of processor faces = 296
    Number of boundary faces = 8236

Processor 40
    Number of cells = 4101
    Number of faces shared with processor 32 = 129
    Number of faces shared with processor 41 = 30
    Number of faces shared with processor 48 = 129
    Number of faces shared with processor 49 = 2
    Number of processor patches = 4
    Number of processor faces = 290
    Number of boundary faces = 8234

Processor 41
    Number of cells = 4101
    Number of faces shared with processor 32 = 3
    Number of faces shared with processor 33 = 122
    Number of faces shared with processor 40 = 30
    Number of faces shared with processor 42 = 16
    Number of faces shared with processor 49 = 126
    Number of faces shared with processor 50 = 17
    Number of processor patches = 6
    Number of processor faces = 314
    Number of boundary faces = 8206

Processor 42
    Number of cells = 4101
    Number of faces shared with processor 17 = 4
    Number of faces shared with processor 25 = 41
    Number of faces shared with processor 33 = 7
    Number of faces shared with processor 34 = 144
    Number of faces shared with processor 41 = 16
    Number of faces shared with processor 50 = 98
    Number of faces shared with processor 51 = 15
    Number of processor patches = 7
    Number of processor faces = 325
    Number of boundary faces = 8391

Processor 43
    Number of cells = 4101
    Number of faces shared with processor 20 = 24
    Number of faces shared with processor 26 = 18
    Number of faces shared with processor 34 = 2
    Number of faces shared with processor 35 = 181
    Number of faces shared with processor 51 = 187
    Number of processor patches = 5
    Number of processor faces = 412
    Number of boundary faces = 8202

Processor 44
    Number of cells = 4101
    Number of faces shared with processor 36 = 221
    Number of faces shared with processor 51 = 1
    Number of faces shared with processor 52 = 215
    Number of faces shared with processor 53 = 16
    Number of faces shared with processor 59 = 19
    Number of processor patches = 5
    Number of processor faces = 472
    Number of boundary faces = 8202

Processor 45
    Number of cells = 4101
    Number of faces shared with processor 20 = 17
    Number of faces shared with processor 28 = 14
    Number of faces shared with processor 37 = 145
    Number of faces shared with processor 46 = 1
    Number of faces shared with processor 53 = 173
    Number of faces shared with processor 54 = 19
    Number of processor patches = 6
    Number of processor faces = 369
    Number of boundary faces = 8241

Processor 46
    Number of cells = 4101
    Number of faces shared with processor 37 = 34
    Number of faces shared with processor 38 = 154
    Number of faces shared with processor 45 = 1
    Number of faces shared with processor 47 = 22
    Number of faces shared with processor 54 = 146
    Number of faces shared with processor 55 = 5
    Number of processor patches = 6
    Number of processor faces = 362
    Number of boundary faces = 8202

Processor 47
    Number of cells = 4102
    Number of faces shared with processor 38 = 9
    Number of faces shared with processor 39 = 132
    Number of faces shared with processor 46 = 22
    Number of faces shared with processor 55 = 132
    Number of processor patches = 4
    Number of processor faces = 295
    Number of boundary faces = 8235

Processor 48
    Number of cells = 4101
    Number of faces shared with processor 40 = 129
    Number of faces shared with processor 49 = 32
    Number of faces shared with processor 56 = 130
    Number of faces shared with processor 57 = 1
    Number of processor patches = 4
    Number of processor faces = 292
    Number of boundary faces = 8234

Processor 49
    Number of cells = 4101
    Number of faces shared with processor 40 = 2
    Number of faces shared with processor 41 = 126
    Number of faces shared with processor 48 = 32
    Number of faces shared with processor 50 = 25
    Number of faces shared with processor 57 = 125
    Number of faces shared with processor 58 = 8
    Number of processor patches = 6
    Number of processor faces = 318
    Number of boundary faces = 8202

Processor 50
    Number of cells = 4101
    Number of faces shared with processor 41 = 17
    Number of faces shared with processor 42 = 98
    Number of faces shared with processor 49 = 25
    Number of faces shared with processor 51 = 27
    Number of faces shared with processor 58 = 98
    Number of faces shared with processor 59 = 15
    Number of processor patches = 6
    Number of processor faces = 280
    Number of boundary faces = 8202

Processor 51
    Number of cells = 4101
    Number of faces shared with processor 20 = 5
    Number of faces shared with processor 28 = 20
    Number of faces shared with processor 34 = 19
    Number of faces shared with processor 36 = 21
    Number of faces shared with processor 42 = 15
    Number of faces shared with processor 43 = 187
    Number of faces shared with processor 44 = 1
    Number of faces shared with processor 50 = 27
    Number of faces shared with processor 59 = 71
    Number of processor patches = 9
    Number of processor faces = 366
    Number of boundary faces = 8442

Processor 52
    Number of cells = 4101
    Number of faces shared with processor 44 = 215
    Number of faces shared with processor 53 = 4
    Number of faces shared with processor 59 = 20
    Number of faces shared with processor 60 = 213
    Number of faces shared with processor 61 = 14
    Number of processor patches = 5
    Number of processor faces = 466
    Number of boundary faces = 8202

Processor 53
    Number of cells = 4101
    Number of faces shared with processor 28 = 1
    Number of faces shared with processor 36 = 16
    Number of faces shared with processor 44 = 16
    Number of faces shared with processor 45 = 173
    Number of faces shared with processor 52 = 4
    Number of faces shared with processor 54 = 14
    Number of faces shared with processor 61 = 157
    Number of faces shared with processor 62 = 7
    Number of processor patches = 8
    Number of processor faces = 388
    Number of boundary faces = 8202

Processor 54
    Number of cells = 4101
    Number of faces shared with processor 45 = 19
    Number of faces shared with processor 46 = 146
    Number of faces shared with processor 53 = 14
    Number of faces shared with processor 55 = 26
    Number of faces shared with processor 62 = 141
    Number of faces shared with processor 63 = 2
    Number of processor patches = 6
    Number of processor faces = 348
    Number of boundary faces = 8202

Processor 55
    Number of cells = 4102
    Number of faces shared with processor 46 = 5
    Number of faces shared with processor 47 = 132
    Number of faces shared with processor 54 = 26
    Number of faces shared with processor 63 = 132
    Number of processor patches = 4
    Number of processor faces = 295
    Number of boundary faces = 8235

Processor 56
    Number of cells = 4105
    Number of faces shared with processor 48 = 130
    Number of faces shared with processor 57 = 33
    Number of processor patches = 2
    Number of processor faces = 163
    Number of boundary faces = 8371

Processor 57
    Number of cells = 4105
    Number of faces shared with processor 48 = 1
    Number of faces shared with processor 49 = 125
    Number of faces shared with processor 56 = 33
    Number of faces shared with processor 58 = 34
    Number of processor patches = 4
    Number of processor faces = 193
    Number of boundary faces = 8333

Processor 58
    Number of cells = 4105
    Number of faces shared with processor 49 = 8
    Number of faces shared with processor 50 = 98
    Number of faces shared with processor 57 = 34
    Number of faces shared with processor 59 = 43
    Number of processor patches = 4
    Number of processor faces = 183
    Number of boundary faces = 8307

Processor 59
    Number of cells = 4105
    Number of faces shared with processor 44 = 19
    Number of faces shared with processor 50 = 15
    Number of faces shared with processor 51 = 71
    Number of faces shared with processor 52 = 20
    Number of faces shared with processor 58 = 43
    Number of faces shared with processor 60 = 20
    Number of processor patches = 6
    Number of processor faces = 188
    Number of boundary faces = 8280

Processor 60
    Number of cells = 4105
    Number of faces shared with processor 52 = 213
    Number of faces shared with processor 59 = 20
    Number of faces shared with processor 61 = 19
    Number of processor patches = 3
    Number of processor faces = 252
    Number of boundary faces = 8422

Processor 61
    Number of cells = 4105
    Number of faces shared with processor 52 = 14
    Number of faces shared with processor 53 = 157
    Number of faces shared with processor 60 = 19
    Number of faces shared with processor 62 = 24
    Number of processor patches = 4
    Number of processor faces = 214
    Number of boundary faces = 8358

Processor 62
    Number of cells = 4105
    Number of faces shared with processor 53 = 7
    Number of faces shared with processor 54 = 141
    Number of faces shared with processor 61 = 24
    Number of faces shared with processor 63 = 30
    Number of processor patches = 4
    Number of processor faces = 202
    Number of boundary faces = 8350

Processor 63
    Number of cells = 4102
    Number of faces shared with processor 54 = 2
    Number of faces shared with processor 55 = 132
    Number of faces shared with processor 62 = 30
    Number of processor patches = 3
    Number of processor faces = 164
    Number of boundary faces = 8366

Number of processor faces = 9825
Max number of cells = 4105 (0.0838095% above average 4101.56)
Max number of processor patches = 9 (80% above average 5)
Max number of faces between processors = 482 (56.9873% above average 307.031)

Time = 0

Processor 0: field transfer
Processor 1: field transfer
Processor 2: field transfer
Processor 3: field transfer
Processor 4: field transfer
Processor 5: field transfer
Processor 6: field transfer
Processor 7: field transfer
Processor 8: field transfer
Processor 9: field transfer
Processor 10: field transfer
Processor 11: field transfer
Processor 12: field transfer
Processor 13: field transfer
Processor 14: field transfer
Processor 15: field transfer
Processor 16: field transfer
Processor 17: field transfer
Processor 18: field transfer
Processor 19: field transfer
Processor 20: field transfer
Processor 21: field transfer
Processor 22: field transfer
Processor 23: field transfer
Processor 24: field transfer
Processor 25: field transfer
Processor 26: field transfer
Processor 27: field transfer
Processor 28: field transfer
Processor 29: field transfer
Processor 30: field transfer
Processor 31: field transfer
Processor 32: field transfer
Processor 33: field transfer
Processor 34: field transfer
Processor 35: field transfer
Processor 36: field transfer
Processor 37: field transfer
Processor 38: field transfer
Processor 39: field transfer
Processor 40: field transfer
Processor 41: field transfer
Processor 42: field transfer
Processor 43: field transfer
Processor 44: field transfer
Processor 45: field transfer
Processor 46: field transfer
Processor 47: field transfer
Processor 48: field transfer
Processor 49: field transfer
Processor 50: field transfer
Processor 51: field transfer
Processor 52: field transfer
Processor 53: field transfer
Processor 54: field transfer
Processor 55: field transfer
Processor 56: field transfer
Processor 57: field transfer
Processor 58: field transfer
Processor 59: field transfer
Processor 60: field transfer
Processor 61: field transfer
Processor 62: field transfer
Processor 63: field transfer

End

