/*---------------------------------------------------------------------------*\
  =========                 |
  \\      /  F ield         | OpenFOAM: The Open Source CFD Toolbox
   \\    /   O peration     | Website:  https://openfoam.org
    \\  /    A nd           | Version:  7
     \\/     M anipulation  |
\*---------------------------------------------------------------------------*/
Build  : 7-49b2b3b8b082
Exec   : checkMesh
Date   : May 09 2022
Time   : 14:42:37
Host   : "c415-042.stampede2.tacc.utexas.edu"
PID    : 238101
I/O    : uncollated
Case   : /work2/07674/bradenp/stampede2/diamond-airfoil/simulations/unorganized/test_new_mesh
nProcs : 1
sigFpe : Enabling floating point exception trapping (FOAM_SIGFPE).
fileModificationChecking : Monitoring run-time modified files using timeStampMaster (fileModificationSkew 10)
allowSystemOperations : Allowing user-supplied system call operations

// * * * * * * * * * * * * * * * * * * * * * * * * * * * * * * * * * * * * * //
Create time

Create polyMesh for time = 0

Time = 0

Mesh stats
    points:           187640
    internal points:  0
    faces:            369820
    internal faces:   182180
    cells:            92000
    faces per cell:   6
    boundary patches: 6
    point zones:      0
    face zones:       0
    cell zones:       0

Overall number of cells of each type:
    hexahedra:     92000
    prisms:        0
    wedges:        0
    pyramids:      0
    tet wedges:    0
    tetrahedra:    0
    polyhedra:     0

Checking topology...
    Boundary definition OK.
    Cell to face addressing OK.
    Point usage OK.
    Upper triangular ordering OK.
    Face vertices OK.
    Number of regions: 1 (OK).

Checking patch topology for multiply connected surfaces...
    Patch               Faces    Points   Surface topology                  
    inlet               100      202      ok (non-closed singly connected)  
    outlet              100      202      ok (non-closed singly connected)  
    airfoil             1600     3200     ok (non-closed singly connected)  
    top                 920      1842     ok (non-closed singly connected)  
    bottom              920      1842     ok (non-closed singly connected)  
    defaultFaces        184000   187640   ok (non-closed singly connected)  

Checking geometry...
    Overall domain bounding box (-6 -6 -0.05) (6 6 0.05)
    Mesh has 2 geometric (non-empty/wedge) directions (1 1 0)
    Mesh has 2 solution (non-empty) directions (1 1 0)
    All edges aligned with or perpendicular to non-empty directions.
    Boundary openness (-6.43693e-19 -5.06767e-18 -3.14546e-17) OK.
    Max cell openness = 2.23889e-16 OK.
    Max aspect ratio = 402.275 OK.
    Minimum face area = 7.24377e-06. Maximum face area = 0.196654.  Face area magnitudes OK.
    Min volume = 7.24377e-07. Max volume = 0.0196654.  Total volume = 13.8.  Cell volumes OK.
    Mesh non-orthogonality Max: 38.4223 average: 21.511
    Non-orthogonality check OK.
    Face pyramids OK.
    Max skewness = 1.95859 OK.
    Coupled point location match (average 0) OK.

Mesh OK.

End

