/*---------------------------------------------------------------------------*\
  =========                 |
  \\      /  F ield         | OpenFOAM: The Open Source CFD Toolbox
   \\    /   O peration     | Website:  https://openfoam.org
    \\  /    A nd           | Version:  7
     \\/     M anipulation  |
\*---------------------------------------------------------------------------*/
Build  : 7-49b2b3b8b082
Exec   : decomposePar
Date   : May 09 2022
Time   : 19:15:51
Host   : "c469-001.stampede2.tacc.utexas.edu"
PID    : 192954
I/O    : uncollated
Case   : /work2/07674/bradenp/stampede2/diamond-airfoil/simulations/unorganized/test_new_mesh
nProcs : 1
sigFpe : Enabling floating point exception trapping (FOAM_SIGFPE).
fileModificationChecking : Monitoring run-time modified files using timeStampMaster (fileModificationSkew 10)
allowSystemOperations : Allowing user-supplied system call operations

// * * * * * * * * * * * * * * * * * * * * * * * * * * * * * * * * * * * * * //
Create time



Decomposing mesh region0

Create mesh

Calculating distribution of cells
 Foam::decompositionMethod::New 
{
    numberOfSubdomains 64;
    method          hierarchical;
    simpleCoeffs
    {
        n               ( 8 8 1 );
        delta           0.001;
    }
    hierarchicalCoeffs
    {
        n               ( 8 8 1 );
        delta           0.001;
        order           xyz;
    }
}

Selecting decompositionMethod hierarchical

Finished decomposition in 0.11 s

Calculating original mesh data

Distributing cells to processors

Distributing faces to processors

Distributing points to processors

Constructing processor meshes

Processor 0
    Number of cells = 1640
    Number of faces shared with processor 1 = 13
    Number of faces shared with processor 8 = 135
    Number of faces shared with processor 9 = 2
    Number of processor patches = 3
    Number of processor faces = 150
    Number of boundary faces = 3424

Processor 1
    Number of cells = 1640
    Number of faces shared with processor 0 = 13
    Number of faces shared with processor 2 = 9
    Number of faces shared with processor 9 = 139
    Number of faces shared with processor 10 = 4
    Number of processor patches = 4
    Number of processor faces = 165
    Number of boundary faces = 3419

Processor 2
    Number of cells = 1640
    Number of faces shared with processor 1 = 9
    Number of faces shared with processor 3 = 10
    Number of faces shared with processor 10 = 164
    Number of faces shared with processor 11 = 2
    Number of processor patches = 4
    Number of processor faces = 185
    Number of boundary faces = 3441

Processor 3
    Number of cells = 1640
    Number of faces shared with processor 2 = 10
    Number of faces shared with processor 4 = 9
    Number of faces shared with processor 11 = 176
    Number of processor patches = 3
    Number of processor faces = 195
    Number of boundary faces = 3455

Processor 4
    Number of cells = 1640
    Number of faces shared with processor 3 = 9
    Number of faces shared with processor 5 = 15
    Number of faces shared with processor 11 = 10
    Number of faces shared with processor 12 = 69
    Number of faces shared with processor 13 = 9
    Number of faces shared with processor 19 = 6
    Number of processor patches = 6
    Number of processor faces = 118
    Number of boundary faces = 3348

Processor 5
    Number of cells = 1640
    Number of faces shared with processor 4 = 15
    Number of faces shared with processor 6 = 14
    Number of faces shared with processor 13 = 120
    Number of processor patches = 3
    Number of processor faces = 149
    Number of boundary faces = 3399

Processor 6
    Number of cells = 1640
    Number of faces shared with processor 5 = 14
    Number of faces shared with processor 7 = 14
    Number of faces shared with processor 13 = 1
    Number of faces shared with processor 14 = 125
    Number of processor patches = 4
    Number of processor faces = 154
    Number of boundary faces = 3404

Processor 7
    Number of cells = 1640
    Number of faces shared with processor 6 = 14
    Number of faces shared with processor 15 = 133
    Number of processor patches = 2
    Number of processor faces = 147
    Number of boundary faces = 3425

Processor 8
    Number of cells = 1640
    Number of faces shared with processor 0 = 135
    Number of faces shared with processor 9 = 9
    Number of faces shared with processor 16 = 136
    Number of faces shared with processor 17 = 4
    Number of processor patches = 4
    Number of processor faces = 284
    Number of boundary faces = 3292

Processor 9
    Number of cells = 1640
    Number of faces shared with processor 0 = 2
    Number of faces shared with processor 1 = 139
    Number of faces shared with processor 8 = 9
    Number of faces shared with processor 10 = 2
    Number of faces shared with processor 17 = 143
    Number of faces shared with processor 18 = 5
    Number of faces shared with processor 26 = 4
    Number of faces shared with processor 34 = 4
    Number of processor patches = 8
    Number of processor faces = 308
    Number of boundary faces = 3280

Processor 10
    Number of cells = 1640
    Number of faces shared with processor 1 = 4
    Number of faces shared with processor 2 = 164
    Number of faces shared with processor 9 = 2
    Number of faces shared with processor 11 = 7
    Number of faces shared with processor 18 = 172
    Number of faces shared with processor 19 = 7
    Number of processor patches = 6
    Number of processor faces = 356
    Number of boundary faces = 3280

Processor 11
    Number of cells = 1640
    Number of faces shared with processor 2 = 2
    Number of faces shared with processor 3 = 176
    Number of faces shared with processor 4 = 10
    Number of faces shared with processor 10 = 7
    Number of faces shared with processor 19 = 175
    Number of processor patches = 5
    Number of processor faces = 370
    Number of boundary faces = 3280

Processor 12
    Number of cells = 1640
    Number of faces shared with processor 4 = 69
    Number of faces shared with processor 13 = 5
    Number of faces shared with processor 19 = 4
    Number of faces shared with processor 20 = 70
    Number of faces shared with processor 21 = 15
    Number of faces shared with processor 27 = 10
    Number of faces shared with processor 29 = 4
    Number of faces shared with processor 35 = 10
    Number of faces shared with processor 43 = 1
    Number of processor patches = 9
    Number of processor faces = 188
    Number of boundary faces = 3280

Processor 13
    Number of cells = 1640
    Number of faces shared with processor 4 = 9
    Number of faces shared with processor 5 = 120
    Number of faces shared with processor 6 = 1
    Number of faces shared with processor 12 = 5
    Number of faces shared with processor 14 = 13
    Number of faces shared with processor 21 = 120
    Number of processor patches = 6
    Number of processor faces = 268
    Number of boundary faces = 3280

Processor 14
    Number of cells = 1640
    Number of faces shared with processor 6 = 125
    Number of faces shared with processor 13 = 13
    Number of faces shared with processor 15 = 12
    Number of faces shared with processor 22 = 125
    Number of faces shared with processor 23 = 1
    Number of processor patches = 5
    Number of processor faces = 276
    Number of boundary faces = 3280

Processor 15
    Number of cells = 1640
    Number of faces shared with processor 7 = 133
    Number of faces shared with processor 14 = 12
    Number of faces shared with processor 23 = 133
    Number of processor patches = 3
    Number of processor faces = 278
    Number of boundary faces = 3292

Processor 16
    Number of cells = 1640
    Number of faces shared with processor 8 = 136
    Number of faces shared with processor 17 = 5
    Number of faces shared with processor 24 = 137
    Number of faces shared with processor 25 = 8
    Number of processor patches = 4
    Number of processor faces = 286
    Number of boundary faces = 3292

Processor 17
    Number of cells = 1640
    Number of faces shared with processor 8 = 4
    Number of faces shared with processor 9 = 143
    Number of faces shared with processor 16 = 5
    Number of faces shared with processor 25 = 148
    Number of faces shared with processor 34 = 22
    Number of processor patches = 5
    Number of processor faces = 322
    Number of boundary faces = 3288

Processor 18
    Number of cells = 1640
    Number of faces shared with processor 9 = 5
    Number of faces shared with processor 10 = 172
    Number of faces shared with processor 19 = 1
    Number of faces shared with processor 26 = 185
    Number of faces shared with processor 27 = 8
    Number of faces shared with processor 35 = 6
    Number of faces shared with processor 43 = 3
    Number of processor patches = 7
    Number of processor faces = 380
    Number of boundary faces = 3280

Processor 19
    Number of cells = 1640
    Number of faces shared with processor 4 = 6
    Number of faces shared with processor 10 = 7
    Number of faces shared with processor 11 = 175
    Number of faces shared with processor 12 = 4
    Number of faces shared with processor 18 = 1
    Number of faces shared with processor 27 = 179
    Number of processor patches = 6
    Number of processor faces = 372
    Number of boundary faces = 3280

Processor 20
    Number of cells = 1640
    Number of faces shared with processor 12 = 70
    Number of faces shared with processor 28 = 215
    Number of faces shared with processor 29 = 3
    Number of faces shared with processor 43 = 3
    Number of faces shared with processor 45 = 20
    Number of faces shared with processor 53 = 1
    Number of processor patches = 6
    Number of processor faces = 312
    Number of boundary faces = 3542

Processor 21
    Number of cells = 1640
    Number of faces shared with processor 12 = 15
    Number of faces shared with processor 13 = 120
    Number of faces shared with processor 22 = 13
    Number of faces shared with processor 29 = 122
    Number of processor patches = 4
    Number of processor faces = 270
    Number of boundary faces = 3280

Processor 22
    Number of cells = 1640
    Number of faces shared with processor 14 = 125
    Number of faces shared with processor 21 = 13
    Number of faces shared with processor 23 = 13
    Number of faces shared with processor 30 = 126
    Number of faces shared with processor 31 = 1
    Number of processor patches = 5
    Number of processor faces = 278
    Number of boundary faces = 3280

Processor 23
    Number of cells = 1640
    Number of faces shared with processor 14 = 1
    Number of faces shared with processor 15 = 133
    Number of faces shared with processor 22 = 13
    Number of faces shared with processor 31 = 132
    Number of processor patches = 4
    Number of processor faces = 279
    Number of boundary faces = 3293

Processor 24
    Number of cells = 1640
    Number of faces shared with processor 16 = 137
    Number of faces shared with processor 25 = 4
    Number of faces shared with processor 32 = 108
    Number of faces shared with processor 33 = 8
    Number of processor patches = 4
    Number of processor faces = 257
    Number of boundary faces = 3319

Processor 25
    Number of cells = 1640
    Number of faces shared with processor 16 = 8
    Number of faces shared with processor 17 = 148
    Number of faces shared with processor 24 = 4
    Number of faces shared with processor 33 = 59
    Number of processor patches = 4
    Number of processor faces = 219
    Number of boundary faces = 3357

Processor 26
    Number of cells = 1640
    Number of faces shared with processor 9 = 4
    Number of faces shared with processor 18 = 185
    Number of faces shared with processor 34 = 118
    Number of faces shared with processor 43 = 8
    Number of processor patches = 4
    Number of processor faces = 315
    Number of boundary faces = 3351

Processor 27
    Number of cells = 1640
    Number of faces shared with processor 12 = 10
    Number of faces shared with processor 18 = 8
    Number of faces shared with processor 19 = 179
    Number of faces shared with processor 35 = 181
    Number of processor patches = 4
    Number of processor faces = 378
    Number of boundary faces = 3280

Processor 28
    Number of cells = 1640
    Number of faces shared with processor 20 = 215
    Number of faces shared with processor 36 = 205
    Number of faces shared with processor 43 = 10
    Number of faces shared with processor 51 = 1
    Number of faces shared with processor 53 = 3
    Number of processor patches = 5
    Number of processor faces = 434
    Number of boundary faces = 3280

Processor 29
    Number of cells = 1640
    Number of faces shared with processor 12 = 4
    Number of faces shared with processor 20 = 3
    Number of faces shared with processor 21 = 122
    Number of faces shared with processor 30 = 10
    Number of faces shared with processor 37 = 71
    Number of faces shared with processor 38 = 7
    Number of faces shared with processor 46 = 10
    Number of processor patches = 7
    Number of processor faces = 227
    Number of boundary faces = 3453

Processor 30
    Number of cells = 1640
    Number of faces shared with processor 22 = 126
    Number of faces shared with processor 29 = 10
    Number of faces shared with processor 31 = 11
    Number of faces shared with processor 38 = 78
    Number of faces shared with processor 39 = 7
    Number of processor patches = 5
    Number of processor faces = 232
    Number of boundary faces = 3438

Processor 31
    Number of cells = 1640
    Number of faces shared with processor 22 = 1
    Number of faces shared with processor 23 = 132
    Number of faces shared with processor 30 = 11
    Number of faces shared with processor 39 = 132
    Number of processor patches = 4
    Number of processor faces = 276
    Number of boundary faces = 3292

Processor 32
    Number of cells = 1640
    Number of faces shared with processor 24 = 108
    Number of faces shared with processor 33 = 11
    Number of faces shared with processor 40 = 130
    Number of processor patches = 3
    Number of processor faces = 249
    Number of boundary faces = 3329

Processor 33
    Number of cells = 1640
    Number of faces shared with processor 24 = 8
    Number of faces shared with processor 25 = 59
    Number of faces shared with processor 32 = 11
    Number of faces shared with processor 34 = 3
    Number of faces shared with processor 41 = 127
    Number of faces shared with processor 42 = 7
    Number of processor patches = 6
    Number of processor faces = 215
    Number of boundary faces = 3457

Processor 34
    Number of cells = 1640
    Number of faces shared with processor 9 = 4
    Number of faces shared with processor 17 = 22
    Number of faces shared with processor 26 = 118
    Number of faces shared with processor 33 = 3
    Number of faces shared with processor 42 = 54
    Number of processor patches = 5
    Number of processor faces = 201
    Number of boundary faces = 3423

Processor 35
    Number of cells = 1640
    Number of faces shared with processor 12 = 10
    Number of faces shared with processor 18 = 6
    Number of faces shared with processor 27 = 181
    Number of faces shared with processor 43 = 185
    Number of processor patches = 4
    Number of processor faces = 382
    Number of boundary faces = 3280

Processor 36
    Number of cells = 1640
    Number of faces shared with processor 28 = 205
    Number of faces shared with processor 44 = 201
    Number of faces shared with processor 51 = 10
    Number of faces shared with processor 53 = 6
    Number of processor patches = 4
    Number of processor faces = 422
    Number of boundary faces = 3280

Processor 37
    Number of cells = 1640
    Number of faces shared with processor 29 = 71
    Number of faces shared with processor 45 = 141
    Number of faces shared with processor 46 = 7
    Number of faces shared with processor 54 = 3
    Number of processor patches = 4
    Number of processor faces = 222
    Number of boundary faces = 3340

Processor 38
    Number of cells = 1640
    Number of faces shared with processor 29 = 7
    Number of faces shared with processor 30 = 78
    Number of faces shared with processor 39 = 6
    Number of faces shared with processor 46 = 148
    Number of faces shared with processor 47 = 4
    Number of processor patches = 5
    Number of processor faces = 243
    Number of boundary faces = 3347

Processor 39
    Number of cells = 1640
    Number of faces shared with processor 30 = 7
    Number of faces shared with processor 31 = 132
    Number of faces shared with processor 38 = 6
    Number of faces shared with processor 47 = 132
    Number of processor patches = 4
    Number of processor faces = 277
    Number of boundary faces = 3293

Processor 40
    Number of cells = 1640
    Number of faces shared with processor 32 = 130
    Number of faces shared with processor 41 = 13
    Number of faces shared with processor 48 = 130
    Number of processor patches = 3
    Number of processor faces = 273
    Number of boundary faces = 3293

Processor 41
    Number of cells = 1640
    Number of faces shared with processor 33 = 127
    Number of faces shared with processor 40 = 13
    Number of faces shared with processor 42 = 8
    Number of faces shared with processor 49 = 127
    Number of faces shared with processor 50 = 5
    Number of processor patches = 5
    Number of processor faces = 280
    Number of boundary faces = 3280

Processor 42
    Number of cells = 1640
    Number of faces shared with processor 33 = 7
    Number of faces shared with processor 34 = 54
    Number of faces shared with processor 41 = 8
    Number of faces shared with processor 43 = 13
    Number of faces shared with processor 50 = 101
    Number of faces shared with processor 51 = 4
    Number of processor patches = 6
    Number of processor faces = 187
    Number of boundary faces = 3329

Processor 43
    Number of cells = 1640
    Number of faces shared with processor 12 = 1
    Number of faces shared with processor 18 = 3
    Number of faces shared with processor 20 = 3
    Number of faces shared with processor 26 = 8
    Number of faces shared with processor 28 = 10
    Number of faces shared with processor 35 = 185
    Number of faces shared with processor 42 = 13
    Number of faces shared with processor 51 = 89
    Number of processor patches = 8
    Number of processor faces = 312
    Number of boundary faces = 3542

Processor 44
    Number of cells = 1640
    Number of faces shared with processor 36 = 201
    Number of faces shared with processor 51 = 9
    Number of faces shared with processor 52 = 197
    Number of faces shared with processor 53 = 6
    Number of faces shared with processor 59 = 1
    Number of processor patches = 5
    Number of processor faces = 414
    Number of boundary faces = 3280

Processor 45
    Number of cells = 1640
    Number of faces shared with processor 20 = 20
    Number of faces shared with processor 37 = 141
    Number of faces shared with processor 53 = 156
    Number of faces shared with processor 54 = 5
    Number of processor patches = 4
    Number of processor faces = 322
    Number of boundary faces = 3310

Processor 46
    Number of cells = 1640
    Number of faces shared with processor 29 = 10
    Number of faces shared with processor 37 = 7
    Number of faces shared with processor 38 = 148
    Number of faces shared with processor 47 = 8
    Number of faces shared with processor 54 = 141
    Number of faces shared with processor 55 = 2
    Number of processor patches = 6
    Number of processor faces = 316
    Number of boundary faces = 3280

Processor 47
    Number of cells = 1640
    Number of faces shared with processor 38 = 4
    Number of faces shared with processor 39 = 132
    Number of faces shared with processor 46 = 8
    Number of faces shared with processor 55 = 132
    Number of processor patches = 4
    Number of processor faces = 276
    Number of boundary faces = 3292

Processor 48
    Number of cells = 1640
    Number of faces shared with processor 40 = 130
    Number of faces shared with processor 49 = 13
    Number of faces shared with processor 56 = 130
    Number of processor patches = 3
    Number of processor faces = 273
    Number of boundary faces = 3293

Processor 49
    Number of cells = 1640
    Number of faces shared with processor 41 = 127
    Number of faces shared with processor 48 = 13
    Number of faces shared with processor 50 = 11
    Number of faces shared with processor 57 = 127
    Number of faces shared with processor 58 = 2
    Number of processor patches = 5
    Number of processor faces = 280
    Number of boundary faces = 3280

Processor 50
    Number of cells = 1640
    Number of faces shared with processor 41 = 5
    Number of faces shared with processor 42 = 101
    Number of faces shared with processor 49 = 11
    Number of faces shared with processor 51 = 16
    Number of faces shared with processor 58 = 102
    Number of faces shared with processor 59 = 1
    Number of processor patches = 6
    Number of processor faces = 236
    Number of boundary faces = 3280

Processor 51
    Number of cells = 1640
    Number of faces shared with processor 28 = 1
    Number of faces shared with processor 36 = 10
    Number of faces shared with processor 42 = 4
    Number of faces shared with processor 43 = 89
    Number of faces shared with processor 44 = 9
    Number of faces shared with processor 50 = 16
    Number of faces shared with processor 59 = 89
    Number of processor patches = 7
    Number of processor faces = 218
    Number of boundary faces = 3280

Processor 52
    Number of cells = 1640
    Number of faces shared with processor 44 = 197
    Number of faces shared with processor 53 = 1
    Number of faces shared with processor 59 = 9
    Number of faces shared with processor 60 = 195
    Number of faces shared with processor 61 = 6
    Number of processor patches = 5
    Number of processor faces = 408
    Number of boundary faces = 3280

Processor 53
    Number of cells = 1640
    Number of faces shared with processor 20 = 1
    Number of faces shared with processor 28 = 3
    Number of faces shared with processor 36 = 6
    Number of faces shared with processor 44 = 6
    Number of faces shared with processor 45 = 156
    Number of faces shared with processor 52 = 1
    Number of faces shared with processor 54 = 6
    Number of faces shared with processor 61 = 147
    Number of faces shared with processor 62 = 2
    Number of processor patches = 9
    Number of processor faces = 328
    Number of boundary faces = 3280

Processor 54
    Number of cells = 1640
    Number of faces shared with processor 37 = 3
    Number of faces shared with processor 45 = 5
    Number of faces shared with processor 46 = 141
    Number of faces shared with processor 53 = 6
    Number of faces shared with processor 55 = 12
    Number of faces shared with processor 62 = 141
    Number of processor patches = 6
    Number of processor faces = 308
    Number of boundary faces = 3280

Processor 55
    Number of cells = 1640
    Number of faces shared with processor 46 = 2
    Number of faces shared with processor 47 = 132
    Number of faces shared with processor 54 = 12
    Number of faces shared with processor 63 = 131
    Number of processor patches = 4
    Number of processor faces = 277
    Number of boundary faces = 3293

Processor 56
    Number of cells = 1645
    Number of faces shared with processor 48 = 130
    Number of faces shared with processor 57 = 14
    Number of processor patches = 2
    Number of processor faces = 144
    Number of boundary faces = 3432

Processor 57
    Number of cells = 1645
    Number of faces shared with processor 49 = 127
    Number of faces shared with processor 56 = 14
    Number of faces shared with processor 58 = 14
    Number of processor patches = 3
    Number of processor faces = 155
    Number of boundary faces = 3415

Processor 58
    Number of cells = 1645
    Number of faces shared with processor 49 = 2
    Number of faces shared with processor 50 = 102
    Number of faces shared with processor 57 = 14
    Number of faces shared with processor 59 = 17
    Number of processor patches = 4
    Number of processor faces = 135
    Number of boundary faces = 3391

Processor 59
    Number of cells = 1645
    Number of faces shared with processor 44 = 1
    Number of faces shared with processor 50 = 1
    Number of faces shared with processor 51 = 89
    Number of faces shared with processor 52 = 9
    Number of faces shared with processor 58 = 17
    Number of faces shared with processor 60 = 10
    Number of processor patches = 6
    Number of processor faces = 127
    Number of boundary faces = 3379

Processor 60
    Number of cells = 1645
    Number of faces shared with processor 52 = 195
    Number of faces shared with processor 59 = 10
    Number of faces shared with processor 61 = 8
    Number of processor patches = 3
    Number of processor faces = 213
    Number of boundary faces = 3483

Processor 61
    Number of cells = 1645
    Number of faces shared with processor 52 = 6
    Number of faces shared with processor 53 = 147
    Number of faces shared with processor 60 = 8
    Number of faces shared with processor 62 = 11
    Number of processor patches = 4
    Number of processor faces = 172
    Number of boundary faces = 3434

Processor 62
    Number of cells = 1645
    Number of faces shared with processor 53 = 2
    Number of faces shared with processor 54 = 141
    Number of faces shared with processor 61 = 11
    Number of faces shared with processor 63 = 13
    Number of processor patches = 4
    Number of processor faces = 167
    Number of boundary faces = 3429

Processor 63
    Number of cells = 1645
    Number of faces shared with processor 55 = 131
    Number of faces shared with processor 62 = 13
    Number of processor patches = 2
    Number of processor faces = 144
    Number of boundary faces = 3432

Number of processor faces = 8302
Max number of cells = 1645 (0.266667% above average 1640.62)
Max number of processor patches = 9 (90.7285% above average 4.71875)
Max number of faces between processors = 434 (67.285% above average 259.438)

Time = 0

Processor 0: field transfer
Processor 1: field transfer
Processor 2: field transfer
Processor 3: field transfer
Processor 4: field transfer
Processor 5: field transfer
Processor 6: field transfer
Processor 7: field transfer
Processor 8: field transfer
Processor 9: field transfer
Processor 10: field transfer
Processor 11: field transfer
Processor 12: field transfer
Processor 13: field transfer
Processor 14: field transfer
Processor 15: field transfer
Processor 16: field transfer
Processor 17: field transfer
Processor 18: field transfer
Processor 19: field transfer
Processor 20: field transfer
Processor 21: field transfer
Processor 22: field transfer
Processor 23: field transfer
Processor 24: field transfer
Processor 25: field transfer
Processor 26: field transfer
Processor 27: field transfer
Processor 28: field transfer
Processor 29: field transfer
Processor 30: field transfer
Processor 31: field transfer
Processor 32: field transfer
Processor 33: field transfer
Processor 34: field transfer
Processor 35: field transfer
Processor 36: field transfer
Processor 37: field transfer
Processor 38: field transfer
Processor 39: field transfer
Processor 40: field transfer
Processor 41: field transfer
Processor 42: field transfer
Processor 43: field transfer
Processor 44: field transfer
Processor 45: field transfer
Processor 46: field transfer
Processor 47: field transfer
Processor 48: field transfer
Processor 49: field transfer
Processor 50: field transfer
Processor 51: field transfer
Processor 52: field transfer
Processor 53: field transfer
Processor 54: field transfer
Processor 55: field transfer
Processor 56: field transfer
Processor 57: field transfer
Processor 58: field transfer
Processor 59: field transfer
Processor 60: field transfer
Processor 61: field transfer
Processor 62: field transfer
Processor 63: field transfer

End

