/*---------------------------------------------------------------------------*\
  =========                 |
  \\      /  F ield         | OpenFOAM: The Open Source CFD Toolbox
   \\    /   O peration     | Website:  https://openfoam.org
    \\  /    A nd           | Version:  7
     \\/     M anipulation  |
\*---------------------------------------------------------------------------*/
Build  : 7-49b2b3b8b082
Exec   : rhoCentralFoam -parallel
Date   : May 09 2022
Time   : 14:43:28
Host   : "c415-042.stampede2.tacc.utexas.edu"
PID    : 238174
I/O    : uncollated
Case   : /work2/07674/bradenp/stampede2/diamond-airfoil/simulations/unorganized/test_new_mesh
nProcs : 64
Slaves : 
63
(
"c415-042.stampede2.tacc.utexas.edu.238175"
"c415-042.stampede2.tacc.utexas.edu.238176"
"c415-042.stampede2.tacc.utexas.edu.238177"
"c415-042.stampede2.tacc.utexas.edu.238178"
"c415-042.stampede2.tacc.utexas.edu.238179"
"c415-042.stampede2.tacc.utexas.edu.238180"
"c415-042.stampede2.tacc.utexas.edu.238181"
"c415-042.stampede2.tacc.utexas.edu.238182"
"c415-042.stampede2.tacc.utexas.edu.238183"
"c415-042.stampede2.tacc.utexas.edu.238184"
"c415-042.stampede2.tacc.utexas.edu.238185"
"c415-042.stampede2.tacc.utexas.edu.238186"
"c415-042.stampede2.tacc.utexas.edu.238187"
"c415-042.stampede2.tacc.utexas.edu.238188"
"c415-042.stampede2.tacc.utexas.edu.238189"
"c415-042.stampede2.tacc.utexas.edu.238190"
"c415-042.stampede2.tacc.utexas.edu.238191"
"c415-042.stampede2.tacc.utexas.edu.238192"
"c415-042.stampede2.tacc.utexas.edu.238193"
"c415-042.stampede2.tacc.utexas.edu.238194"
"c415-042.stampede2.tacc.utexas.edu.238195"
"c415-042.stampede2.tacc.utexas.edu.238196"
"c415-042.stampede2.tacc.utexas.edu.238197"
"c415-042.stampede2.tacc.utexas.edu.238198"
"c415-042.stampede2.tacc.utexas.edu.238199"
"c415-042.stampede2.tacc.utexas.edu.238200"
"c415-042.stampede2.tacc.utexas.edu.238201"
"c415-042.stampede2.tacc.utexas.edu.238202"
"c415-042.stampede2.tacc.utexas.edu.238203"
"c415-042.stampede2.tacc.utexas.edu.238204"
"c415-042.stampede2.tacc.utexas.edu.238205"
"c415-042.stampede2.tacc.utexas.edu.238206"
"c415-042.stampede2.tacc.utexas.edu.238207"
"c415-042.stampede2.tacc.utexas.edu.238208"
"c415-042.stampede2.tacc.utexas.edu.238209"
"c415-042.stampede2.tacc.utexas.edu.238210"
"c415-042.stampede2.tacc.utexas.edu.238211"
"c415-042.stampede2.tacc.utexas.edu.238212"
"c415-042.stampede2.tacc.utexas.edu.238213"
"c415-042.stampede2.tacc.utexas.edu.238214"
"c415-042.stampede2.tacc.utexas.edu.238215"
"c415-042.stampede2.tacc.utexas.edu.238216"
"c415-042.stampede2.tacc.utexas.edu.238217"
"c415-042.stampede2.tacc.utexas.edu.238218"
"c415-042.stampede2.tacc.utexas.edu.238219"
"c415-042.stampede2.tacc.utexas.edu.238220"
"c415-042.stampede2.tacc.utexas.edu.238221"
"c415-042.stampede2.tacc.utexas.edu.238222"
"c415-042.stampede2.tacc.utexas.edu.238223"
"c415-042.stampede2.tacc.utexas.edu.238224"
"c415-042.stampede2.tacc.utexas.edu.238225"
"c415-042.stampede2.tacc.utexas.edu.238226"
"c415-042.stampede2.tacc.utexas.edu.238227"
"c415-042.stampede2.tacc.utexas.edu.238228"
"c415-042.stampede2.tacc.utexas.edu.238229"
"c415-042.stampede2.tacc.utexas.edu.238230"
"c415-042.stampede2.tacc.utexas.edu.238231"
"c415-042.stampede2.tacc.utexas.edu.238232"
"c415-042.stampede2.tacc.utexas.edu.238233"
"c415-042.stampede2.tacc.utexas.edu.238234"
"c415-042.stampede2.tacc.utexas.edu.238235"
"c415-042.stampede2.tacc.utexas.edu.238236"
"c415-042.stampede2.tacc.utexas.edu.238237"
)

Pstream initialized with:
    floatTransfer      : 0
    nProcsSimpleSum    : 0
    commsType          : nonBlocking
    polling iterations : 0
sigFpe : Enabling floating point exception trapping (FOAM_SIGFPE).
fileModificationChecking : Monitoring run-time modified files using timeStampMaster (fileModificationSkew 10)
allowSystemOperations : Allowing user-supplied system call operations

// * * * * * * * * * * * * * * * * * * * * * * * * * * * * * * * * * * * * * //
Create time

Create mesh for time = 0

Reading thermophysical properties

Selecting thermodynamics package 
{
    type            hePsiThermo;
    mixture         pureMixture;
    transport       const;
    thermo          hConst;
    equationOfState perfectGas;
    specie          specie;
    energy          sensibleInternalEnergy;
}

Reading field U

Creating turbulence model

Selecting turbulence model type laminar
Selecting laminar stress model Stokes
fluxScheme: Kurganov

Starting time loop

Mean and max Courant Numbers = 0.115301 1.18489
Time = 0.0005

diagonal:  Solving for rho, Initial residual = 0, Final residual = 0, No Iterations 0
diagonal:  Solving for rhoUx, Initial residual = 0, Final residual = 0, No Iterations 0
diagonal:  Solving for rhoUy, Initial residual = 0, Final residual = 0, No Iterations 0
diagonal:  Solving for rhoE, Initial residual = 0, Final residual = 0, No Iterations 0
ExecutionTime = 0.27 s  ClockTime = 0 s

Mean and max Courant Numbers = 0.115305 1.20487
Time = 0.001

diagonal:  Solving for rho, Initial residual = 0, Final residual = 0, No Iterations 0
diagonal:  Solving for rhoUx, Initial residual = 0, Final residual = 0, No Iterations 0
diagonal:  Solving for rhoUy, Initial residual = 0, Final residual = 0, No Iterations 0
diagonal:  Solving for rhoE, Initial residual = 0, Final residual = 0, No Iterations 0
ExecutionTime = 0.29 s  ClockTime = 1 s

Mean and max Courant Numbers = 0.115304 1.22353
Time = 0.0015

diagonal:  Solving for rho, Initial residual = 0, Final residual = 0, No Iterations 0
diagonal:  Solving for rhoUx, Initial residual = 0, Final residual = 0, No Iterations 0
diagonal:  Solving for rhoUy, Initial residual = 0, Final residual = 0, No Iterations 0
diagonal:  Solving for rhoE, Initial residual = 0, Final residual = 0, No Iterations 0
ExecutionTime = 0.32 s  ClockTime = 1 s

Mean and max Courant Numbers = 0.115301 1.25703
Time = 0.002

diagonal:  Solving for rho, Initial residual = 0, Final residual = 0, No Iterations 0
diagonal:  Solving for rhoUx, Initial residual = 0, Final residual = 0, No Iterations 0
diagonal:  Solving for rhoUy, Initial residual = 0, Final residual = 0, No Iterations 0
diagonal:  Solving for rhoE, Initial residual = 0, Final residual = 0, No Iterations 0
ExecutionTime = 0.34 s  ClockTime = 1 s

Mean and max Courant Numbers = 0.115297 1.30839
Time = 0.0025

diagonal:  Solving for rho, Initial residual = 0, Final residual = 0, No Iterations 0
diagonal:  Solving for rhoUx, Initial residual = 0, Final residual = 0, No Iterations 0
diagonal:  Solving for rhoUy, Initial residual = 0, Final residual = 0, No Iterations 0
diagonal:  Solving for rhoE, Initial residual = 0, Final residual = 0, No Iterations 0
ExecutionTime = 0.36 s  ClockTime = 1 s

Mean and max Courant Numbers = 0.115293 1.32425
Time = 0.003

diagonal:  Solving for rho, Initial residual = 0, Final residual = 0, No Iterations 0
diagonal:  Solving for rhoUx, Initial residual = 0, Final residual = 0, No Iterations 0
diagonal:  Solving for rhoUy, Initial residual = 0, Final residual = 0, No Iterations 0
diagonal:  Solving for rhoE, Initial residual = 0, Final residual = 0, No Iterations 0
ExecutionTime = 0.38 s  ClockTime = 1 s

[31] #0  Foam::error::printStack(Foam::Ostream&) at ??:?
[31] #1  Foam::sigFpe::sigHandler(int) at ??:?
[31] #2  ? in "/lib64/libpthread.so.0"
[31] #3  Foam::sqrt(Foam::Field<double>&, Foam::UList<double> const&) at ??:?
[31] #4  Foam::tmp<Foam::GeometricField<double, Foam::volMesh> > Foam::sqrt<Foam::fvPatchField, Foam::volMesh>(Foam::tmp<Foam::GeometricField<double, Foam::volMesh> > const&) at ??:?
[31] #5  ? at ??:?
[31] #6  __libc_start_main in "/lib64/libc.so.6"
[31] #7  ? at ??:?

===================================================================================
=   BAD TERMINATION OF ONE OF YOUR APPLICATION PROCESSES
=   PID 238205 RUNNING AT c415-042
=   EXIT CODE: 8
=   CLEANING UP REMAINING PROCESSES
=   YOU CAN IGNORE THE BELOW CLEANUP MESSAGES
===================================================================================
   Intel(R) MPI Library troubleshooting guide:
      https://software.intel.com/node/561764
===================================================================================
