/*---------------------------------------------------------------------------*\
  =========                 |
  \\      /  F ield         | OpenFOAM: The Open Source CFD Toolbox
   \\    /   O peration     | Website:  https://openfoam.org
    \\  /    A nd           | Version:  7
     \\/     M anipulation  |
\*---------------------------------------------------------------------------*/
Build  : 7-49b2b3b8b082
Exec   : blockMesh
Date   : May 09 2022
Time   : 15:57:21
Host   : "c401-053.stampede2.tacc.utexas.edu"
PID    : 269850
I/O    : uncollated
Case   : /work2/07674/bradenp/stampede2/diamond-airfoil/simulations/unorganized/test_new_mesh
nProcs : 1
sigFpe : Enabling floating point exception trapping (FOAM_SIGFPE).
fileModificationChecking : Monitoring run-time modified files using timeStampMaster (fileModificationSkew 10)
allowSystemOperations : Allowing user-supplied system call operations

// * * * * * * * * * * * * * * * * * * * * * * * * * * * * * * * * * * * * * //
Create time

Creating block mesh from
    "/work2/07674/bradenp/stampede2/diamond-airfoil/simulations/unorganized/test_new_mesh/system/blockMeshDict"
No non-linear block edges defined
No non-planar block faces defined
Creating topology blocks
Creating topology patches

Creating block mesh topology
--> FOAM Warning : 
    From function Foam::polyMesh::polyMesh(const Foam::IOobject &, Foam::Field<Foam::Vector<double>> &&, const Foam::List<Foam::cellShape> &, const Foam::List<Foam::List<Foam::face>> &, const Foam::List<Foam::word> &, const Foam::PtrList<Foam::dictionary> &, const Foam::word &, const Foam::word &, bool)
    in file meshes/polyMesh/polyMeshFromShapeMesh.C at line 873
    Found 24 undefined faces in mesh; adding to default patch.

Check topology

	Basic statistics
		Number of internal faces : 12
		Number of boundary faces : 48
		Number of defined boundary faces : 48
		Number of undefined boundary faces : 0
	Checking patch -> block consistency

Creating block offsets
Creating merge list .

Creating polyMesh from blockMesh
Creating points with scale 1
    Block 0 cell size :
        i : 0.00181841 .. 0.181841
        j : 0.00322423 .. 0.322423
        k : 0.1
    Block 1 cell size :
        i : 0.00322423 .. 0.322423 0.00322379 .. 0.322379 0.00322423 .. 0.322423 0.00322379 .. 0.322379 
        j : 0.00152502 .. 0.0228753 0.00152475 .. 0.0228712 0.00152502 .. 0.0228753 0.00152475 .. 0.0228712 
        k : 0.1
    Block 2 cell size :
        i : 0.232215 .. 0.00232215 0.232259 .. 0.00232259 0.232215 .. 0.00232215 0.232259 .. 0.00232259 
        j : 0.00119457 .. 0.0179185 0.00119536 .. 0.0179304 0.00119457 .. 0.0179185 0.00119536 .. 0.0179304 
        k : 0.1
    Block 3 cell size :
        i : 0.00232215 .. 0.232215
        j : 0.00152502 .. 0.0228753
        k : 0.1
    Block 4 cell size :
        i : 0.228252 .. 0.00228252
        j : 0.00152445 .. 0.0228667
        k : 0.1
    Block 5 cell size :
        i : 0.00157694 .. 0.0788468
        j : 0.228252 .. 0.00228252
        k : 0.1
    Block 6 cell size :
        i : 0.00157694 .. 0.0788468
        j : 0.00322423 .. 0.322423
        k : 0.1
    Block 7 cell size :
        i : 0.00322423 .. 0.322423 0.00322379 .. 0.322379 0.00322423 .. 0.322423 0.00322379 .. 0.322379 
        j : 0.00152502 .. 0.0228753 0.00152475 .. 0.0228712 0.00152502 .. 0.0228753 0.00152475 .. 0.0228712 
        k : 0.1
    Block 8 cell size :
        i : 0.232215 .. 0.00232215 0.232259 .. 0.00232259 0.232215 .. 0.00232215 0.232259 .. 0.00232259 
        j : 0.00119457 .. 0.0179185 0.00119536 .. 0.0179304 0.00119457 .. 0.0179185 0.00119536 .. 0.0179304 
        k : 0.1
    Block 9 cell size :
        i : 0.00232215 .. 0.232215
        j : 0.00152502 .. 0.0228753
        k : 0.1
    Block 10 cell size :
        i : 0.228252 .. 0.00228252
        j : 0.00152445 .. 0.0228667
        k : 0.1
    Block 11 cell size :
        i : 0.00181841 .. 0.181841
        j : 0.228252 .. 0.00228252
        k : 0.1
Creating cells
Creating patches

There are no merge patch pairs edges

Writing polyMesh
----------------
Mesh Information
----------------
  boundingBox: (-6 -6 -0.05) (6 6 0.05)
  nPoints: 420080
  nCells: 208000
  nFaces: 834040
  nInternalFaces: 413960
----------------
Patches
----------------
  patch 0 (start: 413960 size: 200) name: inlet
  patch 1 (start: 414160 size: 200) name: outlet
  patch 2 (start: 414360 size: 1600) name: airfoil
  patch 3 (start: 415960 size: 1040) name: top
  patch 4 (start: 417000 size: 1040) name: bottom
  patch 5 (start: 418040 size: 416000) name: defaultFaces

End

