/*---------------------------------------------------------------------------*\
  =========                 |
  \\      /  F ield         | OpenFOAM: The Open Source CFD Toolbox
   \\    /   O peration     | Website:  https://openfoam.org
    \\  /    A nd           | Version:  7
     \\/     M anipulation  |
\*---------------------------------------------------------------------------*/
Build  : 7-49b2b3b8b082
Exec   : decomposePar
Date   : May 09 2022
Time   : 14:55:01
Host   : "c468-101.stampede2.tacc.utexas.edu"
PID    : 105389
I/O    : uncollated
Case   : /work2/07674/bradenp/stampede2/diamond-airfoil/simulations/unorganized/test_new_mesh
nProcs : 1
sigFpe : Enabling floating point exception trapping (FOAM_SIGFPE).
fileModificationChecking : Monitoring run-time modified files using timeStampMaster (fileModificationSkew 10)
allowSystemOperations : Allowing user-supplied system call operations

// * * * * * * * * * * * * * * * * * * * * * * * * * * * * * * * * * * * * * //
Create time



Decomposing mesh region0

Create mesh

Calculating distribution of cells
 Foam::decompositionMethod::New 
{
    numberOfSubdomains 64;
    method          hierarchical;
    simpleCoeffs
    {
        n               ( 8 8 1 );
        delta           0.001;
    }
    hierarchicalCoeffs
    {
        n               ( 8 8 1 );
        delta           0.001;
        order           xyz;
    }
}

Selecting decompositionMethod hierarchical

Finished decomposition in 0.15 s

Calculating original mesh data

Distributing cells to processors

Distributing faces to processors

Distributing points to processors

Constructing processor meshes

Processor 0
    Number of cells = 2250
    Number of faces shared with processor 1 = 19
    Number of faces shared with processor 8 = 125
    Number of faces shared with processor 9 = 2
    Number of processor patches = 3
    Number of processor faces = 146
    Number of boundary faces = 4640

Processor 1
    Number of cells = 2250
    Number of faces shared with processor 0 = 19
    Number of faces shared with processor 2 = 14
    Number of faces shared with processor 9 = 129
    Number of faces shared with processor 10 = 7
    Number of processor patches = 4
    Number of processor faces = 169
    Number of boundary faces = 4627

Processor 2
    Number of cells = 2250
    Number of faces shared with processor 1 = 14
    Number of faces shared with processor 3 = 13
    Number of faces shared with processor 10 = 152
    Number of faces shared with processor 11 = 5
    Number of processor patches = 4
    Number of processor faces = 184
    Number of boundary faces = 4648

Processor 3
    Number of cells = 2250
    Number of faces shared with processor 2 = 13
    Number of faces shared with processor 4 = 14
    Number of faces shared with processor 11 = 178
    Number of processor patches = 3
    Number of processor faces = 205
    Number of boundary faces = 4677

Processor 4
    Number of cells = 2250
    Number of faces shared with processor 3 = 14
    Number of faces shared with processor 5 = 24
    Number of faces shared with processor 11 = 13
    Number of faces shared with processor 12 = 64
    Number of faces shared with processor 13 = 12
    Number of faces shared with processor 19 = 9
    Number of processor patches = 6
    Number of processor faces = 136
    Number of boundary faces = 4564

Processor 5
    Number of cells = 2250
    Number of faces shared with processor 4 = 24
    Number of faces shared with processor 6 = 20
    Number of faces shared with processor 13 = 93
    Number of faces shared with processor 14 = 6
    Number of processor patches = 4
    Number of processor faces = 143
    Number of boundary faces = 4591

Processor 6
    Number of cells = 2250
    Number of faces shared with processor 5 = 20
    Number of faces shared with processor 7 = 20
    Number of faces shared with processor 14 = 115
    Number of faces shared with processor 15 = 1
    Number of processor patches = 4
    Number of processor faces = 156
    Number of boundary faces = 4614

Processor 7
    Number of cells = 2250
    Number of faces shared with processor 6 = 20
    Number of faces shared with processor 15 = 119
    Number of processor patches = 2
    Number of processor faces = 139
    Number of boundary faces = 4637

Processor 8
    Number of cells = 2250
    Number of faces shared with processor 0 = 125
    Number of faces shared with processor 9 = 14
    Number of faces shared with processor 16 = 127
    Number of faces shared with processor 17 = 6
    Number of processor patches = 4
    Number of processor faces = 272
    Number of boundary faces = 4518

Processor 9
    Number of cells = 2250
    Number of faces shared with processor 0 = 2
    Number of faces shared with processor 1 = 129
    Number of faces shared with processor 8 = 14
    Number of faces shared with processor 10 = 2
    Number of faces shared with processor 17 = 138
    Number of faces shared with processor 18 = 5
    Number of faces shared with processor 26 = 6
    Number of faces shared with processor 34 = 12
    Number of processor patches = 8
    Number of processor faces = 308
    Number of boundary faces = 4500

Processor 10
    Number of cells = 2250
    Number of faces shared with processor 1 = 7
    Number of faces shared with processor 2 = 152
    Number of faces shared with processor 9 = 2
    Number of faces shared with processor 11 = 7
    Number of faces shared with processor 18 = 165
    Number of faces shared with processor 19 = 10
    Number of faces shared with processor 27 = 5
    Number of processor patches = 7
    Number of processor faces = 348
    Number of boundary faces = 4500

Processor 11
    Number of cells = 2250
    Number of faces shared with processor 2 = 5
    Number of faces shared with processor 3 = 178
    Number of faces shared with processor 4 = 13
    Number of faces shared with processor 10 = 7
    Number of faces shared with processor 19 = 179
    Number of processor patches = 5
    Number of processor faces = 382
    Number of boundary faces = 4500

Processor 12
    Number of cells = 2250
    Number of faces shared with processor 4 = 64
    Number of faces shared with processor 13 = 12
    Number of faces shared with processor 19 = 5
    Number of faces shared with processor 20 = 67
    Number of faces shared with processor 21 = 23
    Number of faces shared with processor 27 = 14
    Number of faces shared with processor 29 = 3
    Number of faces shared with processor 35 = 16
    Number of processor patches = 8
    Number of processor faces = 204
    Number of boundary faces = 4500

Processor 13
    Number of cells = 2250
    Number of faces shared with processor 4 = 12
    Number of faces shared with processor 5 = 93
    Number of faces shared with processor 12 = 12
    Number of faces shared with processor 14 = 14
    Number of faces shared with processor 21 = 94
    Number of faces shared with processor 22 = 11
    Number of processor patches = 6
    Number of processor faces = 236
    Number of boundary faces = 4500

Processor 14
    Number of cells = 2250
    Number of faces shared with processor 5 = 6
    Number of faces shared with processor 6 = 115
    Number of faces shared with processor 13 = 14
    Number of faces shared with processor 15 = 19
    Number of faces shared with processor 22 = 116
    Number of faces shared with processor 23 = 2
    Number of processor patches = 6
    Number of processor faces = 272
    Number of boundary faces = 4500

Processor 15
    Number of cells = 2250
    Number of faces shared with processor 6 = 1
    Number of faces shared with processor 7 = 119
    Number of faces shared with processor 14 = 19
    Number of faces shared with processor 23 = 118
    Number of processor patches = 4
    Number of processor faces = 257
    Number of boundary faces = 4519

Processor 16
    Number of cells = 2250
    Number of faces shared with processor 8 = 127
    Number of faces shared with processor 17 = 4
    Number of faces shared with processor 24 = 129
    Number of faces shared with processor 25 = 17
    Number of processor patches = 4
    Number of processor faces = 277
    Number of boundary faces = 4517

Processor 17
    Number of cells = 2250
    Number of faces shared with processor 8 = 6
    Number of faces shared with processor 9 = 138
    Number of faces shared with processor 16 = 4
    Number of faces shared with processor 25 = 140
    Number of faces shared with processor 34 = 30
    Number of processor patches = 5
    Number of processor faces = 318
    Number of boundary faces = 4518

Processor 18
    Number of cells = 2250
    Number of faces shared with processor 9 = 5
    Number of faces shared with processor 10 = 165
    Number of faces shared with processor 26 = 187
    Number of faces shared with processor 27 = 4
    Number of faces shared with processor 35 = 6
    Number of faces shared with processor 43 = 27
    Number of processor patches = 6
    Number of processor faces = 394
    Number of boundary faces = 4510

Processor 19
    Number of cells = 2250
    Number of faces shared with processor 4 = 9
    Number of faces shared with processor 10 = 10
    Number of faces shared with processor 11 = 179
    Number of faces shared with processor 12 = 5
    Number of faces shared with processor 27 = 183
    Number of processor patches = 5
    Number of processor faces = 386
    Number of boundary faces = 4500

Processor 20
    Number of cells = 2250
    Number of faces shared with processor 12 = 67
    Number of faces shared with processor 28 = 198
    Number of faces shared with processor 29 = 2
    Number of faces shared with processor 43 = 10
    Number of faces shared with processor 45 = 27
    Number of processor patches = 5
    Number of processor faces = 304
    Number of boundary faces = 4740

Processor 21
    Number of cells = 2250
    Number of faces shared with processor 12 = 23
    Number of faces shared with processor 13 = 94
    Number of faces shared with processor 22 = 8
    Number of faces shared with processor 29 = 46
    Number of faces shared with processor 30 = 17
    Number of processor patches = 5
    Number of processor faces = 188
    Number of boundary faces = 4550

Processor 22
    Number of cells = 2250
    Number of faces shared with processor 13 = 11
    Number of faces shared with processor 14 = 116
    Number of faces shared with processor 21 = 8
    Number of faces shared with processor 23 = 17
    Number of faces shared with processor 30 = 117
    Number of faces shared with processor 31 = 3
    Number of processor patches = 6
    Number of processor faces = 272
    Number of boundary faces = 4500

Processor 23
    Number of cells = 2250
    Number of faces shared with processor 14 = 2
    Number of faces shared with processor 15 = 118
    Number of faces shared with processor 22 = 17
    Number of faces shared with processor 31 = 118
    Number of processor patches = 4
    Number of processor faces = 255
    Number of boundary faces = 4519

Processor 24
    Number of cells = 2250
    Number of faces shared with processor 16 = 129
    Number of faces shared with processor 32 = 96
    Number of faces shared with processor 33 = 16
    Number of processor patches = 3
    Number of processor faces = 241
    Number of boundary faces = 4551

Processor 25
    Number of cells = 2250
    Number of faces shared with processor 16 = 17
    Number of faces shared with processor 17 = 140
    Number of faces shared with processor 33 = 57
    Number of processor patches = 3
    Number of processor faces = 214
    Number of boundary faces = 4566

Processor 26
    Number of cells = 2250
    Number of faces shared with processor 9 = 6
    Number of faces shared with processor 18 = 187
    Number of faces shared with processor 34 = 115
    Number of processor patches = 3
    Number of processor faces = 308
    Number of boundary faces = 4566

Processor 27
    Number of cells = 2250
    Number of faces shared with processor 10 = 5
    Number of faces shared with processor 12 = 14
    Number of faces shared with processor 18 = 4
    Number of faces shared with processor 19 = 183
    Number of faces shared with processor 35 = 188
    Number of processor patches = 5
    Number of processor faces = 394
    Number of boundary faces = 4500

Processor 28
    Number of cells = 2250
    Number of faces shared with processor 20 = 198
    Number of faces shared with processor 36 = 188
    Number of faces shared with processor 45 = 6
    Number of faces shared with processor 51 = 16
    Number of processor patches = 4
    Number of processor faces = 408
    Number of boundary faces = 4500

Processor 29
    Number of cells = 2250
    Number of faces shared with processor 12 = 3
    Number of faces shared with processor 20 = 2
    Number of faces shared with processor 21 = 46
    Number of faces shared with processor 37 = 115
    Number of faces shared with processor 46 = 30
    Number of faces shared with processor 54 = 12
    Number of processor patches = 6
    Number of processor faces = 208
    Number of boundary faces = 4614

Processor 30
    Number of cells = 2250
    Number of faces shared with processor 21 = 17
    Number of faces shared with processor 22 = 117
    Number of faces shared with processor 31 = 15
    Number of faces shared with processor 38 = 57
    Number of faces shared with processor 39 = 16
    Number of processor patches = 5
    Number of processor faces = 222
    Number of boundary faces = 4656

Processor 31
    Number of cells = 2250
    Number of faces shared with processor 22 = 3
    Number of faces shared with processor 23 = 118
    Number of faces shared with processor 30 = 15
    Number of faces shared with processor 39 = 96
    Number of processor patches = 4
    Number of processor faces = 232
    Number of boundary faces = 4568

Processor 32
    Number of cells = 2250
    Number of faces shared with processor 24 = 96
    Number of faces shared with processor 33 = 15
    Number of faces shared with processor 40 = 118
    Number of faces shared with processor 41 = 3
    Number of processor patches = 4
    Number of processor faces = 232
    Number of boundary faces = 4568

Processor 33
    Number of cells = 2250
    Number of faces shared with processor 24 = 16
    Number of faces shared with processor 25 = 57
    Number of faces shared with processor 32 = 15
    Number of faces shared with processor 41 = 117
    Number of faces shared with processor 42 = 17
    Number of processor patches = 5
    Number of processor faces = 222
    Number of boundary faces = 4656

Processor 34
    Number of cells = 2250
    Number of faces shared with processor 9 = 12
    Number of faces shared with processor 17 = 30
    Number of faces shared with processor 26 = 115
    Number of faces shared with processor 42 = 46
    Number of faces shared with processor 43 = 2
    Number of faces shared with processor 51 = 3
    Number of processor patches = 6
    Number of processor faces = 208
    Number of boundary faces = 4614

Processor 35
    Number of cells = 2250
    Number of faces shared with processor 12 = 16
    Number of faces shared with processor 18 = 6
    Number of faces shared with processor 27 = 188
    Number of faces shared with processor 43 = 198
    Number of processor patches = 4
    Number of processor faces = 408
    Number of boundary faces = 4500

Processor 36
    Number of cells = 2250
    Number of faces shared with processor 28 = 188
    Number of faces shared with processor 44 = 183
    Number of faces shared with processor 45 = 4
    Number of faces shared with processor 51 = 14
    Number of faces shared with processor 53 = 5
    Number of processor patches = 5
    Number of processor faces = 394
    Number of boundary faces = 4500

Processor 37
    Number of cells = 2250
    Number of faces shared with processor 29 = 115
    Number of faces shared with processor 45 = 187
    Number of faces shared with processor 54 = 6
    Number of processor patches = 3
    Number of processor faces = 308
    Number of boundary faces = 4566

Processor 38
    Number of cells = 2250
    Number of faces shared with processor 30 = 57
    Number of faces shared with processor 46 = 140
    Number of faces shared with processor 47 = 17
    Number of processor patches = 3
    Number of processor faces = 214
    Number of boundary faces = 4566

Processor 39
    Number of cells = 2250
    Number of faces shared with processor 30 = 16
    Number of faces shared with processor 31 = 96
    Number of faces shared with processor 47 = 129
    Number of processor patches = 3
    Number of processor faces = 241
    Number of boundary faces = 4551

Processor 40
    Number of cells = 2250
    Number of faces shared with processor 32 = 118
    Number of faces shared with processor 41 = 17
    Number of faces shared with processor 48 = 118
    Number of faces shared with processor 49 = 2
    Number of processor patches = 4
    Number of processor faces = 255
    Number of boundary faces = 4519

Processor 41
    Number of cells = 2250
    Number of faces shared with processor 32 = 3
    Number of faces shared with processor 33 = 117
    Number of faces shared with processor 40 = 17
    Number of faces shared with processor 42 = 8
    Number of faces shared with processor 49 = 116
    Number of faces shared with processor 50 = 11
    Number of processor patches = 6
    Number of processor faces = 272
    Number of boundary faces = 4500

Processor 42
    Number of cells = 2250
    Number of faces shared with processor 33 = 17
    Number of faces shared with processor 34 = 46
    Number of faces shared with processor 41 = 8
    Number of faces shared with processor 50 = 94
    Number of faces shared with processor 51 = 23
    Number of processor patches = 5
    Number of processor faces = 188
    Number of boundary faces = 4550

Processor 43
    Number of cells = 2250
    Number of faces shared with processor 18 = 27
    Number of faces shared with processor 20 = 10
    Number of faces shared with processor 34 = 2
    Number of faces shared with processor 35 = 198
    Number of faces shared with processor 51 = 67
    Number of processor patches = 5
    Number of processor faces = 304
    Number of boundary faces = 4740

Processor 44
    Number of cells = 2250
    Number of faces shared with processor 36 = 183
    Number of faces shared with processor 51 = 5
    Number of faces shared with processor 52 = 179
    Number of faces shared with processor 53 = 10
    Number of faces shared with processor 59 = 9
    Number of processor patches = 5
    Number of processor faces = 386
    Number of boundary faces = 4500

Processor 45
    Number of cells = 2250
    Number of faces shared with processor 20 = 27
    Number of faces shared with processor 28 = 6
    Number of faces shared with processor 36 = 4
    Number of faces shared with processor 37 = 187
    Number of faces shared with processor 53 = 165
    Number of faces shared with processor 54 = 5
    Number of processor patches = 6
    Number of processor faces = 394
    Number of boundary faces = 4510

Processor 46
    Number of cells = 2250
    Number of faces shared with processor 29 = 30
    Number of faces shared with processor 38 = 140
    Number of faces shared with processor 47 = 4
    Number of faces shared with processor 54 = 138
    Number of faces shared with processor 55 = 6
    Number of processor patches = 5
    Number of processor faces = 318
    Number of boundary faces = 4518

Processor 47
    Number of cells = 2250
    Number of faces shared with processor 38 = 17
    Number of faces shared with processor 39 = 129
    Number of faces shared with processor 46 = 4
    Number of faces shared with processor 55 = 127
    Number of processor patches = 4
    Number of processor faces = 277
    Number of boundary faces = 4517

Processor 48
    Number of cells = 2250
    Number of faces shared with processor 40 = 118
    Number of faces shared with processor 49 = 19
    Number of faces shared with processor 56 = 119
    Number of faces shared with processor 57 = 1
    Number of processor patches = 4
    Number of processor faces = 257
    Number of boundary faces = 4519

Processor 49
    Number of cells = 2250
    Number of faces shared with processor 40 = 2
    Number of faces shared with processor 41 = 116
    Number of faces shared with processor 48 = 19
    Number of faces shared with processor 50 = 14
    Number of faces shared with processor 57 = 115
    Number of faces shared with processor 58 = 6
    Number of processor patches = 6
    Number of processor faces = 272
    Number of boundary faces = 4500

Processor 50
    Number of cells = 2250
    Number of faces shared with processor 41 = 11
    Number of faces shared with processor 42 = 94
    Number of faces shared with processor 49 = 14
    Number of faces shared with processor 51 = 12
    Number of faces shared with processor 58 = 93
    Number of faces shared with processor 59 = 12
    Number of processor patches = 6
    Number of processor faces = 236
    Number of boundary faces = 4500

Processor 51
    Number of cells = 2250
    Number of faces shared with processor 28 = 16
    Number of faces shared with processor 34 = 3
    Number of faces shared with processor 36 = 14
    Number of faces shared with processor 42 = 23
    Number of faces shared with processor 43 = 67
    Number of faces shared with processor 44 = 5
    Number of faces shared with processor 50 = 12
    Number of faces shared with processor 59 = 64
    Number of processor patches = 8
    Number of processor faces = 204
    Number of boundary faces = 4500

Processor 52
    Number of cells = 2250
    Number of faces shared with processor 44 = 179
    Number of faces shared with processor 53 = 7
    Number of faces shared with processor 59 = 13
    Number of faces shared with processor 60 = 178
    Number of faces shared with processor 61 = 5
    Number of processor patches = 5
    Number of processor faces = 382
    Number of boundary faces = 4500

Processor 53
    Number of cells = 2250
    Number of faces shared with processor 36 = 5
    Number of faces shared with processor 44 = 10
    Number of faces shared with processor 45 = 165
    Number of faces shared with processor 52 = 7
    Number of faces shared with processor 54 = 2
    Number of faces shared with processor 61 = 152
    Number of faces shared with processor 62 = 7
    Number of processor patches = 7
    Number of processor faces = 348
    Number of boundary faces = 4500

Processor 54
    Number of cells = 2250
    Number of faces shared with processor 29 = 12
    Number of faces shared with processor 37 = 6
    Number of faces shared with processor 45 = 5
    Number of faces shared with processor 46 = 138
    Number of faces shared with processor 53 = 2
    Number of faces shared with processor 55 = 14
    Number of faces shared with processor 62 = 129
    Number of faces shared with processor 63 = 2
    Number of processor patches = 8
    Number of processor faces = 308
    Number of boundary faces = 4500

Processor 55
    Number of cells = 2250
    Number of faces shared with processor 46 = 6
    Number of faces shared with processor 47 = 127
    Number of faces shared with processor 54 = 14
    Number of faces shared with processor 63 = 125
    Number of processor patches = 4
    Number of processor faces = 272
    Number of boundary faces = 4518

Processor 56
    Number of cells = 2250
    Number of faces shared with processor 48 = 119
    Number of faces shared with processor 57 = 20
    Number of processor patches = 2
    Number of processor faces = 139
    Number of boundary faces = 4637

Processor 57
    Number of cells = 2250
    Number of faces shared with processor 48 = 1
    Number of faces shared with processor 49 = 115
    Number of faces shared with processor 56 = 20
    Number of faces shared with processor 58 = 20
    Number of processor patches = 4
    Number of processor faces = 156
    Number of boundary faces = 4614

Processor 58
    Number of cells = 2250
    Number of faces shared with processor 49 = 6
    Number of faces shared with processor 50 = 93
    Number of faces shared with processor 57 = 20
    Number of faces shared with processor 59 = 24
    Number of processor patches = 4
    Number of processor faces = 143
    Number of boundary faces = 4591

Processor 59
    Number of cells = 2250
    Number of faces shared with processor 44 = 9
    Number of faces shared with processor 50 = 12
    Number of faces shared with processor 51 = 64
    Number of faces shared with processor 52 = 13
    Number of faces shared with processor 58 = 24
    Number of faces shared with processor 60 = 14
    Number of processor patches = 6
    Number of processor faces = 136
    Number of boundary faces = 4564

Processor 60
    Number of cells = 2250
    Number of faces shared with processor 52 = 178
    Number of faces shared with processor 59 = 14
    Number of faces shared with processor 61 = 13
    Number of processor patches = 3
    Number of processor faces = 205
    Number of boundary faces = 4677

Processor 61
    Number of cells = 2250
    Number of faces shared with processor 52 = 5
    Number of faces shared with processor 53 = 152
    Number of faces shared with processor 60 = 13
    Number of faces shared with processor 62 = 14
    Number of processor patches = 4
    Number of processor faces = 184
    Number of boundary faces = 4648

Processor 62
    Number of cells = 2250
    Number of faces shared with processor 53 = 7
    Number of faces shared with processor 54 = 129
    Number of faces shared with processor 61 = 14
    Number of faces shared with processor 63 = 19
    Number of processor patches = 4
    Number of processor faces = 169
    Number of boundary faces = 4627

Processor 63
    Number of cells = 2250
    Number of faces shared with processor 54 = 2
    Number of faces shared with processor 55 = 125
    Number of faces shared with processor 62 = 19
    Number of processor patches = 3
    Number of processor faces = 146
    Number of boundary faces = 4640

Number of processor faces = 8178
Max number of cells = 2250 (0% above average 2250)
Max number of processor patches = 8 (69.5364% above average 4.71875)
Max number of faces between processors = 408 (59.6478% above average 255.562)

Time = 0

Processor 0: field transfer
Processor 1: field transfer
Processor 2: field transfer
Processor 3: field transfer
Processor 4: field transfer
Processor 5: field transfer
Processor 6: field transfer
Processor 7: field transfer
Processor 8: field transfer
Processor 9: field transfer
Processor 10: field transfer
Processor 11: field transfer
Processor 12: field transfer
Processor 13: field transfer
Processor 14: field transfer
Processor 15: field transfer
Processor 16: field transfer
Processor 17: field transfer
Processor 18: field transfer
Processor 19: field transfer
Processor 20: field transfer
Processor 21: field transfer
Processor 22: field transfer
Processor 23: field transfer
Processor 24: field transfer
Processor 25: field transfer
Processor 26: field transfer
Processor 27: field transfer
Processor 28: field transfer
Processor 29: field transfer
Processor 30: field transfer
Processor 31: field transfer
Processor 32: field transfer
Processor 33: field transfer
Processor 34: field transfer
Processor 35: field transfer
Processor 36: field transfer
Processor 37: field transfer
Processor 38: field transfer
Processor 39: field transfer
Processor 40: field transfer
Processor 41: field transfer
Processor 42: field transfer
Processor 43: field transfer
Processor 44: field transfer
Processor 45: field transfer
Processor 46: field transfer
Processor 47: field transfer
Processor 48: field transfer
Processor 49: field transfer
Processor 50: field transfer
Processor 51: field transfer
Processor 52: field transfer
Processor 53: field transfer
Processor 54: field transfer
Processor 55: field transfer
Processor 56: field transfer
Processor 57: field transfer
Processor 58: field transfer
Processor 59: field transfer
Processor 60: field transfer
Processor 61: field transfer
Processor 62: field transfer
Processor 63: field transfer

End

