/*---------------------------------------------------------------------------*\
  =========                 |
  \\      /  F ield         | OpenFOAM: The Open Source CFD Toolbox
   \\    /   O peration     | Website:  https://openfoam.org
    \\  /    A nd           | Version:  7
     \\/     M anipulation  |
\*---------------------------------------------------------------------------*/
Build  : 7-49b2b3b8b082
Exec   : blockMesh
Date   : May 09 2022
Time   : 16:26:33
Host   : "c436-082.stampede2.tacc.utexas.edu"
PID    : 217669
I/O    : uncollated
Case   : /work2/07674/bradenp/stampede2/diamond-airfoil/simulations/unorganized/test_new_mesh
nProcs : 1
sigFpe : Enabling floating point exception trapping (FOAM_SIGFPE).
fileModificationChecking : Monitoring run-time modified files using timeStampMaster (fileModificationSkew 10)
allowSystemOperations : Allowing user-supplied system call operations

// * * * * * * * * * * * * * * * * * * * * * * * * * * * * * * * * * * * * * //
Create time

Creating block mesh from
    "/work2/07674/bradenp/stampede2/diamond-airfoil/simulations/unorganized/test_new_mesh/system/blockMeshDict"
No non-linear block edges defined
No non-planar block faces defined
Creating topology blocks
Creating topology patches

Creating block mesh topology
--> FOAM Warning : 
    From function Foam::polyMesh::polyMesh(const Foam::IOobject &, Foam::Field<Foam::Vector<double>> &&, const Foam::List<Foam::cellShape> &, const Foam::List<Foam::List<Foam::face>> &, const Foam::List<Foam::word> &, const Foam::PtrList<Foam::dictionary> &, const Foam::word &, const Foam::word &, bool)
    in file meshes/polyMesh/polyMeshFromShapeMesh.C at line 873
    Found 24 undefined faces in mesh; adding to default patch.

Check topology

	Basic statistics
		Number of internal faces : 12
		Number of boundary faces : 48
		Number of defined boundary faces : 48
		Number of undefined boundary faces : 0
	Checking patch -> block consistency

Creating block offsets
Creating merge list .

Creating polyMesh from blockMesh
Creating points with scale 1
    Block 0 cell size :
        i : 0.00103654 .. 0.207309
        j : 0.00123321 .. 0.246641
        k : 0.1
    Block 1 cell size :
        i : 0.00123321 .. 0.246641 0.0012331 .. 0.246619 0.00123321 .. 0.246641 0.0012331 .. 0.246619 
        j : 0.000994574 .. 0.0198915 0.000994506 .. 0.0198901 0.000994574 .. 0.0198915 0.000994506 .. 0.0198901 
        k : 0.1
    Block 2 cell size :
        i : 0.177636 .. 0.000888179 0.177658 .. 0.000888288 0.177636 .. 0.000888179 0.177658 .. 0.000888288 
        j : 0.000779064 .. 0.0155813 0.000779366 .. 0.0155873 0.000779064 .. 0.0155813 0.000779366 .. 0.0155873 
        k : 0.1
    Block 3 cell size :
        i : 0.000888179 .. 0.177636
        j : 0.000994574 .. 0.0198915
        k : 0.1
    Block 4 cell size :
        i : 0.174604 .. 0.00087302
        j : 0.000994203 .. 0.0198841
        k : 0.1
    Block 5 cell size :
        i : 0.00157694 .. 0.0788468
        j : 0.174604 .. 0.00087302
        k : 0.1
    Block 6 cell size :
        i : 0.00157694 .. 0.0788468
        j : 0.00123321 .. 0.246641
        k : 0.1
    Block 7 cell size :
        i : 0.00123321 .. 0.246641 0.0012331 .. 0.246619 0.00123321 .. 0.246641 0.0012331 .. 0.246619 
        j : 0.000994574 .. 0.0198915 0.000994506 .. 0.0198901 0.000994574 .. 0.0198915 0.000994506 .. 0.0198901 
        k : 0.1
    Block 8 cell size :
        i : 0.177636 .. 0.000888179 0.177658 .. 0.000888288 0.177636 .. 0.000888179 0.177658 .. 0.000888288 
        j : 0.000779064 .. 0.0155813 0.000779366 .. 0.0155873 0.000779064 .. 0.0155813 0.000779366 .. 0.0155873 
        k : 0.1
    Block 9 cell size :
        i : 0.000888179 .. 0.177636
        j : 0.000994574 .. 0.0198915
        k : 0.1
    Block 10 cell size :
        i : 0.174604 .. 0.00087302
        j : 0.000994203 .. 0.0198841
        k : 0.1
    Block 11 cell size :
        i : 0.00103654 .. 0.207309
        j : 0.174604 .. 0.00087302
        k : 0.1
Creating cells
Creating patches

There are no merge patch pairs edges

Writing polyMesh
----------------
Mesh Information
----------------
  boundingBox: (-6 -6 -0.05) (6 6 0.05)
  nPoints: 749080
  nCells: 372000
  nFaces: 1490540
  nInternalFaces: 741460
----------------
Patches
----------------
  patch 0 (start: 741460 size: 300) name: inlet
  patch 1 (start: 741760 size: 300) name: outlet
  patch 2 (start: 742060 size: 2000) name: airfoil
  patch 3 (start: 744060 size: 1240) name: top
  patch 4 (start: 745300 size: 1240) name: bottom
  patch 5 (start: 746540 size: 744000) name: defaultFaces

End

