/*---------------------------------------------------------------------------*\
  =========                 |
  \\      /  F ield         | OpenFOAM: The Open Source CFD Toolbox
   \\    /   O peration     | Website:  https://openfoam.org
    \\  /    A nd           | Version:  7
     \\/     M anipulation  |
\*---------------------------------------------------------------------------*/
Build  : 7-49b2b3b8b082
Exec   : blockMesh
Date   : May 09 2022
Time   : 18:40:02
Host   : "c413-103.stampede2.tacc.utexas.edu"
PID    : 223940
I/O    : uncollated
Case   : /work2/07674/bradenp/stampede2/diamond-airfoil/simulations/unorganized/test_new_mesh
nProcs : 1
sigFpe : Enabling floating point exception trapping (FOAM_SIGFPE).
fileModificationChecking : Monitoring run-time modified files using timeStampMaster (fileModificationSkew 10)
allowSystemOperations : Allowing user-supplied system call operations

// * * * * * * * * * * * * * * * * * * * * * * * * * * * * * * * * * * * * * //
Create time

Creating block mesh from
    "/work2/07674/bradenp/stampede2/diamond-airfoil/simulations/unorganized/test_new_mesh/system/blockMeshDict"
No non-linear block edges defined
No non-planar block faces defined
Creating topology blocks
Creating topology patches

Creating block mesh topology
--> FOAM Warning : 
    From function Foam::polyMesh::polyMesh(const Foam::IOobject &, Foam::Field<Foam::Vector<double>> &&, const Foam::List<Foam::cellShape> &, const Foam::List<Foam::List<Foam::face>> &, const Foam::List<Foam::word> &, const Foam::PtrList<Foam::dictionary> &, const Foam::word &, const Foam::word &, bool)
    in file meshes/polyMesh/polyMeshFromShapeMesh.C at line 873
    Found 24 undefined faces in mesh; adding to default patch.

Check topology

	Basic statistics
		Number of internal faces : 12
		Number of boundary faces : 48
		Number of defined boundary faces : 48
		Number of undefined boundary faces : 0
	Checking patch -> block consistency

Creating block offsets
Creating merge list .

Creating polyMesh from blockMesh
Creating points with scale 1
    Block 0 cell size :
        i : 0.000558312 .. 0.111662
        j : 0.000927508 .. 0.185502
        k : 0.1
    Block 1 cell size :
        i : 0.000927508 .. 0.185502 0.00092744 .. 0.185488 0.000927508 .. 0.185502 0.00092744 .. 0.185488 
        j : 0.000829176 .. 0.0165835 0.000829133 .. 0.0165827 0.000829176 .. 0.0165835 0.000829133 .. 0.0165827 
        k : 0.1
    Block 2 cell size :
        i : 0.133602 .. 0.00066801 0.133616 .. 0.000668078 0.133602 .. 0.00066801 0.133616 .. 0.000668078 
        j : 0.000649505 .. 0.0129901 0.000649648 .. 0.012993 0.000649505 .. 0.0129901 0.000649648 .. 0.012993 
        k : 0.1
    Block 3 cell size :
        i : 0.00066801 .. 0.133602
        j : 0.000829176 .. 0.0165835
        k : 0.1
    Block 4 cell size :
        i : 0.131322 .. 0.000656608
        j : 0.000828866 .. 0.0165773
        k : 0.1
    Block 5 cell size :
        i : 0.00157694 .. 0.0788468
        j : 0.131322 .. 0.000656608
        k : 0.1
    Block 6 cell size :
        i : 0.00157694 .. 0.0788468
        j : 0.000927508 .. 0.185502
        k : 0.1
    Block 7 cell size :
        i : 0.000927508 .. 0.185502 0.00092744 .. 0.185488 0.000927508 .. 0.185502 0.00092744 .. 0.185488 
        j : 0.000829176 .. 0.0165835 0.000829133 .. 0.0165827 0.000829176 .. 0.0165835 0.000829133 .. 0.0165827 
        k : 0.1
    Block 8 cell size :
        i : 0.133602 .. 0.00066801 0.133616 .. 0.000668078 0.133602 .. 0.00066801 0.133616 .. 0.000668078 
        j : 0.000649505 .. 0.0129901 0.000649648 .. 0.012993 0.000649505 .. 0.0129901 0.000649648 .. 0.012993 
        k : 0.1
    Block 9 cell size :
        i : 0.00066801 .. 0.133602
        j : 0.000829176 .. 0.0165835
        k : 0.1
    Block 10 cell size :
        i : 0.131322 .. 0.000656608
        j : 0.000828866 .. 0.0165773
        k : 0.1
    Block 11 cell size :
        i : 0.000558312 .. 0.111662
        j : 0.131322 .. 0.000656608
        k : 0.1
Creating cells
Creating patches

There are no merge patch pairs edges

Writing polyMesh
----------------
Mesh Information
----------------
  boundingBox: (-6 -6 -0.05) (6 6 0.05)
  nPoints: 1214220
  nCells: 604000
  nFaces: 2419110
  nInternalFaces: 1204890
----------------
Patches
----------------
  patch 0 (start: 1204890 size: 400) name: inlet
  patch 1 (start: 1205290 size: 400) name: outlet
  patch 2 (start: 1205690 size: 2400) name: airfoil
  patch 3 (start: 1208090 size: 1510) name: top
  patch 4 (start: 1209600 size: 1510) name: bottom
  patch 5 (start: 1211110 size: 1208000) name: defaultFaces

End

