/*---------------------------------------------------------------------------*\
  =========                 |
  \\      /  F ield         | OpenFOAM: The Open Source CFD Toolbox
   \\    /   O peration     | Website:  https://openfoam.org
    \\  /    A nd           | Version:  7
     \\/     M anipulation  |
\*---------------------------------------------------------------------------*/
Build  : 7-49b2b3b8b082
Exec   : blockMesh
Date   : May 09 2022
Time   : 19:36:07
Host   : "c401-123.stampede2.tacc.utexas.edu"
PID    : 201294
I/O    : uncollated
Case   : /work2/07674/bradenp/stampede2/diamond-airfoil/simulations/unorganized/test_new_mesh
nProcs : 1
sigFpe : Enabling floating point exception trapping (FOAM_SIGFPE).
fileModificationChecking : Monitoring run-time modified files using timeStampMaster (fileModificationSkew 10)
allowSystemOperations : Allowing user-supplied system call operations

// * * * * * * * * * * * * * * * * * * * * * * * * * * * * * * * * * * * * * //
Create time

Creating block mesh from
    "/work2/07674/bradenp/stampede2/diamond-airfoil/simulations/unorganized/test_new_mesh/system/blockMeshDict"
No non-linear block edges defined
No non-planar block faces defined
Creating topology blocks
Creating topology patches

Creating block mesh topology
--> FOAM Warning : 
    From function Foam::polyMesh::polyMesh(const Foam::IOobject &, Foam::Field<Foam::Vector<double>> &&, const Foam::List<Foam::cellShape> &, const Foam::List<Foam::List<Foam::face>> &, const Foam::List<Foam::word> &, const Foam::PtrList<Foam::dictionary> &, const Foam::word &, const Foam::word &, bool)
    in file meshes/polyMesh/polyMeshFromShapeMesh.C at line 873
    Found 24 undefined faces in mesh; adding to default patch.

Check topology

	Basic statistics
		Number of internal faces : 12
		Number of boundary faces : 48
		Number of defined boundary faces : 48
		Number of undefined boundary faces : 0
	Checking patch -> block consistency

Creating block offsets
Creating merge list .

Creating polyMesh from blockMesh
Creating points with scale 1
    Block 0 cell size :
        i : 0.00247383 .. 0.123691
        j : 0.0107526 .. 0.537632
        k : 0.1
    Block 1 cell size :
        i : 0.0107526 .. 0.537632 0.0107503 .. 0.537516 0.0107526 .. 0.537632 0.0107503 .. 0.537516 
        j : 0.00384097 .. 0.0384097 0.00384008 .. 0.0384008 0.00384097 .. 0.0384097 0.00384008 .. 0.0384008 
        k : 0.1
    Block 2 cell size :
        i : 0.446633 .. 0.00893267 0.446749 .. 0.00893498 0.446633 .. 0.00893267 0.446749 .. 0.00893498 
        j : 0.00354317 .. 0.0354317 0.00354507 .. 0.0354507 0.00354317 .. 0.0354317 0.00354507 .. 0.0354507 
        k : 0.1
    Block 3 cell size :
        i : 0.00893267 .. 0.446633 0.00893149 .. 0.446574 0.00893267 .. 0.446633 0.00893149 .. 0.446574 
        j : 0.00384097 .. 0.0384097 0.00384074 .. 0.0384074 0.00384097 .. 0.0384097 0.00384074 .. 0.0384074 
        k : 0.1
    Block 4 cell size :
        i : 0.400491 .. 0.00800983 0.40055 .. 0.008011 0.400491 .. 0.00800983 0.40055 .. 0.008011 
        j : 0.00376665 .. 0.0376665 0.00376711 .. 0.0376711 0.00376665 .. 0.0376665 0.00376711 .. 0.0376711 
        k : 0.1
    Block 5 cell size :
        i : 0.00247383 .. 0.123691
        j : 0.400491 .. 0.00800983
        k : 0.1
    Block 6 cell size :
        i : 0.00247383 .. 0.123691
        j : 0.0107526 .. 0.537632
        k : 0.1
    Block 7 cell size :
        i : 0.0107526 .. 0.537632 0.0107503 .. 0.537516 0.0107526 .. 0.537632 0.0107503 .. 0.537516 
        j : 0.00384097 .. 0.0384097 0.00384008 .. 0.0384008 0.00384097 .. 0.0384097 0.00384008 .. 0.0384008 
        k : 0.1
    Block 8 cell size :
        i : 0.446633 .. 0.00893267 0.446749 .. 0.00893498 0.446633 .. 0.00893267 0.446749 .. 0.00893498 
        j : 0.00354317 .. 0.0354317 0.00354507 .. 0.0354507 0.00354317 .. 0.0354317 0.00354507 .. 0.0354507 
        k : 0.1
    Block 9 cell size :
        i : 0.00893267 .. 0.446633 0.00893149 .. 0.446574 0.00893267 .. 0.446633 0.00893149 .. 0.446574 
        j : 0.00384097 .. 0.0384097 0.00384074 .. 0.0384074 0.00384097 .. 0.0384097 0.00384074 .. 0.0384074 
        k : 0.1
    Block 10 cell size :
        i : 0.400491 .. 0.00800983 0.40055 .. 0.008011 0.400491 .. 0.00800983 0.40055 .. 0.008011 
        j : 0.00376665 .. 0.0376665 0.00376711 .. 0.0376711 0.00376665 .. 0.0376665 0.00376711 .. 0.0376711 
        k : 0.1
    Block 11 cell size :
        i : 0.00247383 .. 0.123691
        j : 0.400491 .. 0.00800983
        k : 0.1
Creating cells
Creating patches

There are no merge patch pairs edges

Writing polyMesh
----------------
Mesh Information
----------------
  boundingBox: (-6 -6 -0.05) (6 6 0.05)
  nPoints: 122200
  nCells: 60000
  nFaces: 241100
  nInternalFaces: 118900
----------------
Patches
----------------
  patch 0 (start: 118900 size: 100) name: inlet
  patch 1 (start: 119000 size: 100) name: outlet
  patch 2 (start: 119100 size: 800) name: airfoil
  patch 3 (start: 119900 size: 600) name: top
  patch 4 (start: 120500 size: 600) name: bottom
  patch 5 (start: 121100 size: 120000) name: defaultFaces

End

