/*---------------------------------------------------------------------------*\
  =========                 |
  \\      /  F ield         | OpenFOAM: The Open Source CFD Toolbox
   \\    /   O peration     | Website:  https://openfoam.org
    \\  /    A nd           | Version:  7
     \\/     M anipulation  |
\*---------------------------------------------------------------------------*/
Build  : 7-49b2b3b8b082
Exec   : blockMesh
Date   : May 09 2022
Time   : 19:15:14
Host   : "c469-001.stampede2.tacc.utexas.edu"
PID    : 192920
I/O    : uncollated
Case   : /work2/07674/bradenp/stampede2/diamond-airfoil/simulations/unorganized/test_new_mesh
nProcs : 1
sigFpe : Enabling floating point exception trapping (FOAM_SIGFPE).
fileModificationChecking : Monitoring run-time modified files using timeStampMaster (fileModificationSkew 10)
allowSystemOperations : Allowing user-supplied system call operations

// * * * * * * * * * * * * * * * * * * * * * * * * * * * * * * * * * * * * * //
Create time

Creating block mesh from
    "/work2/07674/bradenp/stampede2/diamond-airfoil/simulations/unorganized/test_new_mesh/system/blockMeshDict"
No non-linear block edges defined
No non-planar block faces defined
Creating topology blocks
Creating topology patches

Creating block mesh topology
--> FOAM Warning : 
    From function Foam::polyMesh::polyMesh(const Foam::IOobject &, Foam::Field<Foam::Vector<double>> &&, const Foam::List<Foam::cellShape> &, const Foam::List<Foam::List<Foam::face>> &, const Foam::List<Foam::word> &, const Foam::PtrList<Foam::dictionary> &, const Foam::word &, const Foam::word &, bool)
    in file meshes/polyMesh/polyMeshFromShapeMesh.C at line 873
    Found 24 undefined faces in mesh; adding to default patch.

Check topology

	Basic statistics
		Number of internal faces : 12
		Number of boundary faces : 48
		Number of defined boundary faces : 48
		Number of undefined boundary faces : 0
	Checking patch -> block consistency

Creating block offsets
Creating merge list .

Creating polyMesh from blockMesh
Creating points with scale 1
    Block 0 cell size :
        i : 0.00165499 .. 0.0827495
        j : 0.0107526 .. 0.537632
        k : 0.1
    Block 1 cell size :
        i : 0.0107526 .. 0.537632 0.0107508 .. 0.53754 0.0107526 .. 0.537632 0.0107508 .. 0.53754 
        j : 0.00201848 .. 0.0201848 0.00201742 .. 0.0201742 0.00201848 .. 0.0201848 0.00201742 .. 0.0201742 
        k : 0.1
    Block 2 cell size :
        i : 0.394301 .. 0.00788601 0.394392 .. 0.00788784 0.394301 .. 0.00788601 0.394392 .. 0.00788784 
        j : 0.00164461 .. 0.0164461 0.00164715 .. 0.0164715 0.00164461 .. 0.0164461 0.00164715 .. 0.0164715 
        k : 0.1
    Block 3 cell size :
        i : 0.00788601 .. 0.394301 0.00788609 .. 0.394305 0.00788601 .. 0.394301 0.00788609 .. 0.394305 
        j : 0.00201848 .. 0.0201848
        k : 0.1
    Block 4 cell size :
        i : 0.400491 .. 0.00800983
        j : 0.00201785 .. 0.0201785
        k : 0.1
    Block 5 cell size :
        i : 0.00247383 .. 0.123691
        j : 0.400491 .. 0.00800983
        k : 0.1
    Block 6 cell size :
        i : 0.00247383 .. 0.123691
        j : 0.0107526 .. 0.537632
        k : 0.1
    Block 7 cell size :
        i : 0.0107526 .. 0.537632 0.0107508 .. 0.53754 0.0107526 .. 0.537632 0.0107508 .. 0.53754 
        j : 0.00201848 .. 0.0201848 0.00201742 .. 0.0201742 0.00201848 .. 0.0201848 0.00201742 .. 0.0201742 
        k : 0.1
    Block 8 cell size :
        i : 0.394301 .. 0.00788601 0.394392 .. 0.00788784 0.394301 .. 0.00788601 0.394392 .. 0.00788784 
        j : 0.00164461 .. 0.0164461 0.00164715 .. 0.0164715 0.00164461 .. 0.0164461 0.00164715 .. 0.0164715 
        k : 0.1
    Block 9 cell size :
        i : 0.00788601 .. 0.394301 0.00788609 .. 0.394305 0.00788601 .. 0.394301 0.00788609 .. 0.394305 
        j : 0.00201848 .. 0.0201848
        k : 0.1
    Block 10 cell size :
        i : 0.400491 .. 0.00800983
        j : 0.00201785 .. 0.0201785
        k : 0.1
    Block 11 cell size :
        i : 0.00165499 .. 0.0827495
        j : 0.400491 .. 0.00800983
        k : 0.1
Creating cells
Creating patches

There are no merge patch pairs edges

Writing polyMesh
----------------
Mesh Information
----------------
  boundingBox: (-6 -6 -0.05) (6 6 0.05)
  nPoints: 213900
  nCells: 105000
  nFaces: 421950
  nInternalFaces: 208050
----------------
Patches
----------------
  patch 0 (start: 208050 size: 100) name: inlet
  patch 1 (start: 208150 size: 100) name: outlet
  patch 2 (start: 208250 size: 1600) name: airfoil
  patch 3 (start: 209850 size: 1050) name: top
  patch 4 (start: 210900 size: 1050) name: bottom
  patch 5 (start: 211950 size: 210000) name: defaultFaces

End

