/*---------------------------------------------------------------------------*\
  =========                 |
  \\      /  F ield         | OpenFOAM: The Open Source CFD Toolbox
   \\    /   O peration     | Website:  https://openfoam.org
    \\  /    A nd           | Version:  7
     \\/     M anipulation  |
\*---------------------------------------------------------------------------*/
Build  : 7-49b2b3b8b082
Exec   : blockMesh
Date   : May 09 2022
Time   : 14:48:09
Host   : "c469-093.stampede2.tacc.utexas.edu"
PID    : 227784
I/O    : uncollated
Case   : /work2/07674/bradenp/stampede2/diamond-airfoil/simulations/unorganized/test_new_mesh
nProcs : 1
sigFpe : Enabling floating point exception trapping (FOAM_SIGFPE).
fileModificationChecking : Monitoring run-time modified files using timeStampMaster (fileModificationSkew 10)
allowSystemOperations : Allowing user-supplied system call operations

// * * * * * * * * * * * * * * * * * * * * * * * * * * * * * * * * * * * * * //
Create time

Creating block mesh from
    "/work2/07674/bradenp/stampede2/diamond-airfoil/simulations/unorganized/test_new_mesh/system/blockMeshDict"
No non-linear block edges defined
No non-planar block faces defined
Creating topology blocks
Creating topology patches

Creating block mesh topology
--> FOAM Warning : 
    From function Foam::polyMesh::polyMesh(const Foam::IOobject &, Foam::Field<Foam::Vector<double>> &&, const Foam::List<Foam::cellShape> &, const Foam::List<Foam::List<Foam::face>> &, const Foam::List<Foam::word> &, const Foam::PtrList<Foam::dictionary> &, const Foam::word &, const Foam::word &, bool)
    in file meshes/polyMesh/polyMeshFromShapeMesh.C at line 873
    Found 24 undefined faces in mesh; adding to default patch.

Check topology

	Basic statistics
		Number of internal faces : 12
		Number of boundary faces : 48
		Number of defined boundary faces : 48
		Number of undefined boundary faces : 0
	Checking patch -> block consistency

Creating block offsets
Creating merge list .

Creating polyMesh from blockMesh
Creating points with scale 1
    Block 0 cell size :
        i : 0.00313325 .. 0.156662
        j : 0.0042794 .. 0.42794
        k : 0.1
    Block 1 cell size :
        i : 0.0042794 .. 0.42794 0.00427863 .. 0.427863 0.0042794 .. 0.42794 0.00427863 .. 0.427863 
        j : 0.00201848 .. 0.0201848 0.00201801 .. 0.0201801 0.00201848 .. 0.0201848 0.00201801 .. 0.0201801 
        k : 0.1
    Block 2 cell size :
        i : 0.308211 .. 0.00308211 0.308287 .. 0.00308287 0.308211 .. 0.00308211 0.308287 .. 0.00308287 
        j : 0.00158111 .. 0.0158111 0.00158295 .. 0.0158295 0.00158111 .. 0.0158111 0.00158295 .. 0.0158295 
        k : 0.1
    Block 3 cell size :
        i : 0.00308211 .. 0.308211 0.00308207 .. 0.308207 0.00308211 .. 0.308211 0.00308207 .. 0.308207 
        j : 0.00201848 .. 0.0201848
        k : 0.1
    Block 4 cell size :
        i : 0.30295 .. 0.0030295 0.302954 .. 0.00302954 0.30295 .. 0.0030295 0.302954 .. 0.00302954 
        j : 0.00201773 .. 0.0201773
        k : 0.1
    Block 5 cell size :
        i : 0.00313325 .. 0.156662
        j : 0.30295 .. 0.0030295
        k : 0.1
    Block 6 cell size :
        i : 0.00313325 .. 0.156662
        j : 0.0042794 .. 0.42794
        k : 0.1
    Block 7 cell size :
        i : 0.0042794 .. 0.42794 0.00427863 .. 0.427863 0.0042794 .. 0.42794 0.00427863 .. 0.427863 
        j : 0.00201848 .. 0.0201848 0.00201801 .. 0.0201801 0.00201848 .. 0.0201848 0.00201801 .. 0.0201801 
        k : 0.1
    Block 8 cell size :
        i : 0.308211 .. 0.00308211 0.308287 .. 0.00308287 0.308211 .. 0.00308211 0.308287 .. 0.00308287 
        j : 0.00158111 .. 0.0158111 0.00158295 .. 0.0158295 0.00158111 .. 0.0158111 0.00158295 .. 0.0158295 
        k : 0.1
    Block 9 cell size :
        i : 0.00308211 .. 0.308211 0.00308207 .. 0.308207 0.00308211 .. 0.308211 0.00308207 .. 0.308207 
        j : 0.00201848 .. 0.0201848
        k : 0.1
    Block 10 cell size :
        i : 0.30295 .. 0.0030295 0.302954 .. 0.00302954 0.30295 .. 0.0030295 0.302954 .. 0.00302954 
        j : 0.00201773 .. 0.0201773
        k : 0.1
    Block 11 cell size :
        i : 0.00313325 .. 0.156662
        j : 0.30295 .. 0.0030295
        k : 0.1
Creating cells
Creating patches

There are no merge patch pairs edges

Writing polyMesh
----------------
Mesh Information
----------------
  boundingBox: (-6 -6 -0.05) (6 6 0.05)
  nPoints: 291820
  nCells: 144000
  nFaces: 577910
  nInternalFaces: 286090
----------------
Patches
----------------
  patch 0 (start: 286090 size: 150) name: inlet
  patch 1 (start: 286240 size: 150) name: outlet
  patch 2 (start: 286390 size: 1600) name: airfoil
  patch 3 (start: 287990 size: 960) name: top
  patch 4 (start: 288950 size: 960) name: bottom
  patch 5 (start: 289910 size: 288000) name: defaultFaces

End

