/*---------------------------------------------------------------------------*\
  =========                 |
  \\      /  F ield         | OpenFOAM: The Open Source CFD Toolbox
   \\    /   O peration     | Website:  https://openfoam.org
    \\  /    A nd           | Version:  7
     \\/     M anipulation  |
\*---------------------------------------------------------------------------*/
Build  : 7-49b2b3b8b082
Exec   : blockMesh
Date   : May 09 2022
Time   : 18:57:49
Host   : "c403-132.stampede2.tacc.utexas.edu"
PID    : 230723
I/O    : uncollated
Case   : /work2/07674/bradenp/stampede2/diamond-airfoil/simulations/unorganized/test_new_mesh
nProcs : 1
sigFpe : Enabling floating point exception trapping (FOAM_SIGFPE).
fileModificationChecking : Monitoring run-time modified files using timeStampMaster (fileModificationSkew 10)
allowSystemOperations : Allowing user-supplied system call operations

// * * * * * * * * * * * * * * * * * * * * * * * * * * * * * * * * * * * * * //
Create time

Creating block mesh from
    "/work2/07674/bradenp/stampede2/diamond-airfoil/simulations/unorganized/test_new_mesh/system/blockMeshDict"
No non-linear block edges defined
No non-planar block faces defined
Creating topology blocks
Creating topology patches

Creating block mesh topology
--> FOAM Warning : 
    From function Foam::polyMesh::polyMesh(const Foam::IOobject &, Foam::Field<Foam::Vector<double>> &&, const Foam::List<Foam::cellShape> &, const Foam::List<Foam::List<Foam::face>> &, const Foam::List<Foam::word> &, const Foam::PtrList<Foam::dictionary> &, const Foam::word &, const Foam::word &, bool)
    in file meshes/polyMesh/polyMeshFromShapeMesh.C at line 873
    Found 24 undefined faces in mesh; adding to default patch.

Check topology

	Basic statistics
		Number of internal faces : 12
		Number of boundary faces : 48
		Number of defined boundary faces : 48
		Number of undefined boundary faces : 0
	Checking patch -> block consistency

Creating block offsets
Creating merge list .

Creating polyMesh from blockMesh
Creating points with scale 1
    Block 0 cell size :
        i : 0.00535266 .. 0.0535266
        j : 0.0176497 .. 0.176497
        k : 0.1
    Block 1 cell size :
        i : 0.0176497 .. 0.176497 0.0176467 .. 0.176467 0.0176497 .. 0.176497 0.0176467 .. 0.176467 
        j : 0.00201848 .. 0.0201848 0.00201667 .. 0.0201667 0.00201848 .. 0.0201848 0.00201667 .. 0.0201667 
        k : 0.1
    Block 2 cell size :
        i : 0.128644 .. 0.0128644 0.128675 .. 0.0128675 0.128644 .. 0.0128644 0.128675 .. 0.0128675 
        j : 0.00162393 .. 0.0162393 0.00162422 .. 0.0162422 0.00162393 .. 0.0162393 0.00162422 .. 0.0162422 
        k : 0.1
    Block 3 cell size :
        i : 0.0128644 .. 0.128644
        j : 0.00201848 .. 0.0201848
        k : 0.1
    Block 4 cell size :
        i : 0.129256 .. 0.0129256
        j : 0.00201843 .. 0.0201843
        k : 0.1
    Block 5 cell size :
        i : 0.00801794 .. 0.0801794
        j : 0.129256 .. 0.0129256
        k : 0.1
    Block 6 cell size :
        i : 0.00801794 .. 0.0801794
        j : 0.0117827 .. 0.117827
        k : 0.1
    Block 7 cell size :
        i : 0.0117827 .. 0.117827 0.0117807 .. 0.117807 0.0117827 .. 0.117827 0.0117807 .. 0.117807 
        j : 0.00201848 .. 0.0201848 0.00201727 .. 0.0201727 0.00201848 .. 0.0201848 0.00201727 .. 0.0201727 
        k : 0.1
    Block 8 cell size :
        i : 0.0858809 .. 0.00858809 0.0859013 .. 0.00859013 0.0858809 .. 0.00858809 0.0859013 .. 0.00859013 
        j : 0.00162393 .. 0.0162393 0.00162406 .. 0.0162406 0.00162393 .. 0.0162393 0.00162406 .. 0.0162406 
        k : 0.1
    Block 9 cell size :
        i : 0.00858809 .. 0.0858809
        j : 0.00201848 .. 0.0201848
        k : 0.1
    Block 10 cell size :
        i : 0.0862892 .. 0.00862892
        j : 0.00201843 .. 0.0201843
        k : 0.1
    Block 11 cell size :
        i : 0.00535266 .. 0.0535266
        j : 0.0862892 .. 0.00862892
        k : 0.1
Creating cells
Creating patches

There are no merge patch pairs edges

Writing polyMesh
----------------
Mesh Information
----------------
  boundingBox: (-6 -6 -0.05) (6 6 0.05)
  nPoints: 529200
  nCells: 262500
  nFaces: 1052100
  nInternalFaces: 522900
----------------
Patches
----------------
  patch 0 (start: 522900 size: 250) name: inlet
  patch 1 (start: 523150 size: 250) name: outlet
  patch 2 (start: 523400 size: 1600) name: airfoil
  patch 3 (start: 525000 size: 1050) name: top
  patch 4 (start: 526050 size: 1050) name: bottom
  patch 5 (start: 527100 size: 525000) name: defaultFaces

End

