/*---------------------------------------------------------------------------*\
  =========                 |
  \\      /  F ield         | OpenFOAM: The Open Source CFD Toolbox
   \\    /   O peration     | Website:  https://openfoam.org
    \\  /    A nd           | Version:  7
     \\/     M anipulation  |
\*---------------------------------------------------------------------------*/
Build  : 7-49b2b3b8b082
Exec   : rhoCentralFoam -parallel
Date   : May 09 2022
Time   : 16:30:36
Host   : "c436-082.stampede2.tacc.utexas.edu"
PID    : 217913
I/O    : uncollated
Case   : /work2/07674/bradenp/stampede2/diamond-airfoil/simulations/unorganized/test_new_mesh
nProcs : 64
Slaves : 
63
(
"c436-082.stampede2.tacc.utexas.edu.217914"
"c436-082.stampede2.tacc.utexas.edu.217915"
"c436-082.stampede2.tacc.utexas.edu.217916"
"c436-082.stampede2.tacc.utexas.edu.217917"
"c436-082.stampede2.tacc.utexas.edu.217918"
"c436-082.stampede2.tacc.utexas.edu.217919"
"c436-082.stampede2.tacc.utexas.edu.217920"
"c436-082.stampede2.tacc.utexas.edu.217921"
"c436-082.stampede2.tacc.utexas.edu.217922"
"c436-082.stampede2.tacc.utexas.edu.217923"
"c436-082.stampede2.tacc.utexas.edu.217924"
"c436-082.stampede2.tacc.utexas.edu.217925"
"c436-082.stampede2.tacc.utexas.edu.217926"
"c436-082.stampede2.tacc.utexas.edu.217927"
"c436-082.stampede2.tacc.utexas.edu.217928"
"c436-082.stampede2.tacc.utexas.edu.217929"
"c436-082.stampede2.tacc.utexas.edu.217930"
"c436-082.stampede2.tacc.utexas.edu.217931"
"c436-082.stampede2.tacc.utexas.edu.217932"
"c436-082.stampede2.tacc.utexas.edu.217933"
"c436-082.stampede2.tacc.utexas.edu.217934"
"c436-082.stampede2.tacc.utexas.edu.217935"
"c436-082.stampede2.tacc.utexas.edu.217936"
"c436-082.stampede2.tacc.utexas.edu.217937"
"c436-082.stampede2.tacc.utexas.edu.217938"
"c436-082.stampede2.tacc.utexas.edu.217939"
"c436-082.stampede2.tacc.utexas.edu.217940"
"c436-082.stampede2.tacc.utexas.edu.217941"
"c436-082.stampede2.tacc.utexas.edu.217942"
"c436-082.stampede2.tacc.utexas.edu.217943"
"c436-082.stampede2.tacc.utexas.edu.217944"
"c436-082.stampede2.tacc.utexas.edu.217945"
"c436-082.stampede2.tacc.utexas.edu.217946"
"c436-082.stampede2.tacc.utexas.edu.217947"
"c436-082.stampede2.tacc.utexas.edu.217948"
"c436-082.stampede2.tacc.utexas.edu.217949"
"c436-082.stampede2.tacc.utexas.edu.217950"
"c436-082.stampede2.tacc.utexas.edu.217951"
"c436-082.stampede2.tacc.utexas.edu.217952"
"c436-082.stampede2.tacc.utexas.edu.217953"
"c436-082.stampede2.tacc.utexas.edu.217954"
"c436-082.stampede2.tacc.utexas.edu.217955"
"c436-082.stampede2.tacc.utexas.edu.217956"
"c436-082.stampede2.tacc.utexas.edu.217957"
"c436-082.stampede2.tacc.utexas.edu.217958"
"c436-082.stampede2.tacc.utexas.edu.217959"
"c436-082.stampede2.tacc.utexas.edu.217960"
"c436-082.stampede2.tacc.utexas.edu.217961"
"c436-082.stampede2.tacc.utexas.edu.217962"
"c436-082.stampede2.tacc.utexas.edu.217964"
"c436-082.stampede2.tacc.utexas.edu.217965"
"c436-082.stampede2.tacc.utexas.edu.217966"
"c436-082.stampede2.tacc.utexas.edu.217967"
"c436-082.stampede2.tacc.utexas.edu.217968"
"c436-082.stampede2.tacc.utexas.edu.217969"
"c436-082.stampede2.tacc.utexas.edu.217970"
"c436-082.stampede2.tacc.utexas.edu.217971"
"c436-082.stampede2.tacc.utexas.edu.217972"
"c436-082.stampede2.tacc.utexas.edu.217973"
"c436-082.stampede2.tacc.utexas.edu.217974"
"c436-082.stampede2.tacc.utexas.edu.217975"
"c436-082.stampede2.tacc.utexas.edu.217976"
"c436-082.stampede2.tacc.utexas.edu.217977"
)

Pstream initialized with:
    floatTransfer      : 0
    nProcsSimpleSum    : 0
    commsType          : nonBlocking
    polling iterations : 0
sigFpe : Enabling floating point exception trapping (FOAM_SIGFPE).
fileModificationChecking : Monitoring run-time modified files using timeStampMaster (fileModificationSkew 10)
allowSystemOperations : Allowing user-supplied system call operations

// * * * * * * * * * * * * * * * * * * * * * * * * * * * * * * * * * * * * * //
Create time

Create mesh for time = 0

Reading thermophysical properties

Selecting thermodynamics package 
{
    type            hePsiThermo;
    mixture         pureMixture;
    transport       const;
    thermo          hConst;
    equationOfState perfectGas;
    specie          specie;
    energy          sensibleInternalEnergy;
}

Reading field U

Creating turbulence model

Selecting turbulence model type laminar
Selecting laminar stress model Stokes
fluxScheme: Kurganov

Starting time loop

deltaT = 6e-05
Mean and max Courant Numbers = 0.0194526 0.386206
Time = 6e-05

diagonal:  Solving for rho, Initial residual = 0, Final residual = 0, No Iterations 0
diagonal:  Solving for rhoUx, Initial residual = 0, Final residual = 0, No Iterations 0
diagonal:  Solving for rhoUy, Initial residual = 0, Final residual = 0, No Iterations 0
diagonal:  Solving for rhoE, Initial residual = 0, Final residual = 0, No Iterations 0
ExecutionTime = 0.5 s  ClockTime = 0 s

deltaT = 7.2e-05
Mean and max Courant Numbers = 0.0233434 0.476428
Time = 0.000132

diagonal:  Solving for rho, Initial residual = 0, Final residual = 0, No Iterations 0
diagonal:  Solving for rhoUx, Initial residual = 0, Final residual = 0, No Iterations 0
diagonal:  Solving for rhoUy, Initial residual = 0, Final residual = 0, No Iterations 0
diagonal:  Solving for rhoE, Initial residual = 0, Final residual = 0, No Iterations 0
ExecutionTime = 0.56 s  ClockTime = 0 s

deltaT = 8.64e-05
Mean and max Courant Numbers = 0.0280124 0.584487
Time = 0.0002184

diagonal:  Solving for rho, Initial residual = 0, Final residual = 0, No Iterations 0
diagonal:  Solving for rhoUx, Initial residual = 0, Final residual = 0, No Iterations 0
diagonal:  Solving for rhoUy, Initial residual = 0, Final residual = 0, No Iterations 0
diagonal:  Solving for rhoE, Initial residual = 0, Final residual = 0, No Iterations 0
ExecutionTime = 0.61 s  ClockTime = 0 s

deltaT = 0.00010368
Mean and max Courant Numbers = 0.0336145 0.709708
Time = 0.00032208

diagonal:  Solving for rho, Initial residual = 0, Final residual = 0, No Iterations 0
diagonal:  Solving for rhoUx, Initial residual = 0, Final residual = 0, No Iterations 0
diagonal:  Solving for rhoUy, Initial residual = 0, Final residual = 0, No Iterations 0
diagonal:  Solving for rhoE, Initial residual = 0, Final residual = 0, No Iterations 0
ExecutionTime = 0.66 s  ClockTime = 0 s

deltaT = 0.000121211
Mean and max Courant Numbers = 0.0392974 0.837189
Time = 0.000443291

diagonal:  Solving for rho, Initial residual = 0, Final residual = 0, No Iterations 0
diagonal:  Solving for rhoUx, Initial residual = 0, Final residual = 0, No Iterations 0
diagonal:  Solving for rhoUy, Initial residual = 0, Final residual = 0, No Iterations 0
diagonal:  Solving for rhoE, Initial residual = 0, Final residual = 0, No Iterations 0
ExecutionTime = 0.73 s  ClockTime = 0 s

deltaT = 0.000138585
Mean and max Courant Numbers = 0.0449291 0.95754
Time = 0.000581875

diagonal:  Solving for rho, Initial residual = 0, Final residual = 0, No Iterations 0
diagonal:  Solving for rhoUx, Initial residual = 0, Final residual = 0, No Iterations 0
diagonal:  Solving for rhoUy, Initial residual = 0, Final residual = 0, No Iterations 0
diagonal:  Solving for rhoE, Initial residual = 0, Final residual = 0, No Iterations 0
ExecutionTime = 0.78 s  ClockTime = 0 s

deltaT = 0.000155952
Mean and max Courant Numbers = 0.0505582 1.06967
Time = 0.000737827

diagonal:  Solving for rho, Initial residual = 0, Final residual = 0, No Iterations 0
diagonal:  Solving for rhoUx, Initial residual = 0, Final residual = 0, No Iterations 0
diagonal:  Solving for rhoUy, Initial residual = 0, Final residual = 0, No Iterations 0
diagonal:  Solving for rhoE, Initial residual = 0, Final residual = 0, No Iterations 0
ExecutionTime = 0.84 s  ClockTime = 0 s

deltaT = 0.000173447
Mean and max Courant Numbers = 0.056228 1.2054
Time = 0.000911275

diagonal:  Solving for rho, Initial residual = 0, Final residual = 0, No Iterations 0
diagonal:  Solving for rhoUx, Initial residual = 0, Final residual = 0, No Iterations 0
diagonal:  Solving for rhoUy, Initial residual = 0, Final residual = 0, No Iterations 0
diagonal:  Solving for rhoE, Initial residual = 0, Final residual = 0, No Iterations 0
ExecutionTime = 0.9 s  ClockTime = 1 s

deltaT = 0.00017267
Mean and max Courant Numbers = 0.0559737 1.1976
Time = 0.00108394

diagonal:  Solving for rho, Initial residual = 0, Final residual = 0, No Iterations 0
diagonal:  Solving for rhoUx, Initial residual = 0, Final residual = 0, No Iterations 0
diagonal:  Solving for rhoUy, Initial residual = 0, Final residual = 0, No Iterations 0
diagonal:  Solving for rhoE, Initial residual = 0, Final residual = 0, No Iterations 0
ExecutionTime = 1.11 s  ClockTime = 1 s

deltaT = 0.000173016
Mean and max Courant Numbers = 0.0560833 1.20336
Time = 0.00125696

diagonal:  Solving for rho, Initial residual = 0, Final residual = 0, No Iterations 0
diagonal:  Solving for rhoUx, Initial residual = 0, Final residual = 0, No Iterations 0
diagonal:  Solving for rhoUy, Initial residual = 0, Final residual = 0, No Iterations 0
diagonal:  Solving for rhoE, Initial residual = 0, Final residual = 0, No Iterations 0
ExecutionTime = 1.18 s  ClockTime = 1 s

deltaT = 0.000172533
Mean and max Courant Numbers = 0.0559241 1.18707
Time = 0.00142949

diagonal:  Solving for rho, Initial residual = 0, Final residual = 0, No Iterations 0
diagonal:  Solving for rhoUx, Initial residual = 0, Final residual = 0, No Iterations 0
diagonal:  Solving for rhoUy, Initial residual = 0, Final residual = 0, No Iterations 0
diagonal:  Solving for rhoE, Initial residual = 0, Final residual = 0, No Iterations 0
ExecutionTime = 1.24 s  ClockTime = 1 s

deltaT = 0.000174412
Mean and max Courant Numbers = 0.0565299 1.1815
Time = 0.00160391

diagonal:  Solving for rho, Initial residual = 0, Final residual = 0, No Iterations 0
diagonal:  Solving for rhoUx, Initial residual = 0, Final residual = 0, No Iterations 0
diagonal:  Solving for rhoUy, Initial residual = 0, Final residual = 0, No Iterations 0
diagonal:  Solving for rhoE, Initial residual = 0, Final residual = 0, No Iterations 0
ExecutionTime = 1.3 s  ClockTime = 1 s

deltaT = 0.000177144
[20] #0  Foam::error::printStack(Foam::Ostream&) at ??:?
[20] #1  Foam::sigFpe::sigHandler(int) at ??:?
[20] #2  ? in "/lib64/libpthread.so.0"
[20] #3  Foam::sqrt(Foam::Field<double>&, Foam::UList<double> const&) at ??:?
[20] #4  Foam::tmp<Foam::GeometricField<double, Foam::volMesh> > Foam::sqrt<Foam::fvPatchField, Foam::volMesh>(Foam::tmp<Foam::GeometricField<double, Foam::volMesh> > const&) at ??:?
[20] #5  ? at ??:?
[20] #6  __libc_start_main in "/lib64/libc.so.6"
[20] #7  ? at ??:?

===================================================================================
=   BAD TERMINATION OF ONE OF YOUR APPLICATION PROCESSES
=   PID 217933 RUNNING AT c436-082
=   EXIT CODE: 8
=   CLEANING UP REMAINING PROCESSES
=   YOU CAN IGNORE THE BELOW CLEANUP MESSAGES
===================================================================================
   Intel(R) MPI Library troubleshooting guide:
      https://software.intel.com/node/561764
===================================================================================
