/*---------------------------------------------------------------------------*\
  =========                 |
  \\      /  F ield         | OpenFOAM: The Open Source CFD Toolbox
   \\    /   O peration     | Website:  https://openfoam.org
    \\  /    A nd           | Version:  7
     \\/     M anipulation  |
\*---------------------------------------------------------------------------*/
Build  : 7-49b2b3b8b082
Exec   : decomposePar
Date   : May 09 2022
Time   : 16:15:10
Host   : "c438-093.stampede2.tacc.utexas.edu"
PID    : 17436
I/O    : uncollated
Case   : /work2/07674/bradenp/stampede2/diamond-airfoil/simulations/unorganized/test_new_mesh
nProcs : 1
sigFpe : Enabling floating point exception trapping (FOAM_SIGFPE).
fileModificationChecking : Monitoring run-time modified files using timeStampMaster (fileModificationSkew 10)
allowSystemOperations : Allowing user-supplied system call operations

// * * * * * * * * * * * * * * * * * * * * * * * * * * * * * * * * * * * * * //
Create time



Decomposing mesh region0

Create mesh

Calculating distribution of cells
 Foam::decompositionMethod::New 
{
    numberOfSubdomains 64;
    method          hierarchical;
    simpleCoeffs
    {
        n               ( 8 8 1 );
        delta           0.001;
    }
    hierarchicalCoeffs
    {
        n               ( 8 8 1 );
        delta           0.001;
        order           xyz;
    }
}

Selecting decompositionMethod hierarchical

Finished decomposition in 0.32 s

Calculating original mesh data

Distributing cells to processors

Distributing faces to processors

Distributing points to processors

Constructing processor meshes

Processor 0
    Number of cells = 4500
    Number of faces shared with processor 1 = 27
    Number of faces shared with processor 8 = 182
    Number of faces shared with processor 9 = 4
    Number of processor patches = 3
    Number of processor faces = 213
    Number of boundary faces = 9201

Processor 1
    Number of cells = 4500
    Number of faces shared with processor 0 = 27
    Number of faces shared with processor 2 = 19
    Number of faces shared with processor 9 = 194
    Number of faces shared with processor 10 = 7
    Number of processor patches = 4
    Number of processor faces = 247
    Number of boundary faces = 9195

Processor 2
    Number of cells = 4500
    Number of faces shared with processor 1 = 19
    Number of faces shared with processor 3 = 16
    Number of faces shared with processor 10 = 215
    Number of faces shared with processor 11 = 11
    Number of processor patches = 4
    Number of processor faces = 261
    Number of boundary faces = 9207

Processor 3
    Number of cells = 4500
    Number of faces shared with processor 2 = 16
    Number of faces shared with processor 4 = 17
    Number of faces shared with processor 11 = 290
    Number of processor patches = 3
    Number of processor faces = 323
    Number of boundary faces = 9289

Processor 4
    Number of cells = 4500
    Number of faces shared with processor 3 = 17
    Number of faces shared with processor 5 = 40
    Number of faces shared with processor 11 = 16
    Number of faces shared with processor 12 = 118
    Number of faces shared with processor 19 = 6
    Number of processor patches = 5
    Number of processor faces = 197
    Number of boundary faces = 9117

Processor 5
    Number of cells = 4500
    Number of faces shared with processor 4 = 40
    Number of faces shared with processor 6 = 25
    Number of faces shared with processor 12 = 2
    Number of faces shared with processor 13 = 109
    Number of faces shared with processor 14 = 17
    Number of processor patches = 5
    Number of processor faces = 193
    Number of boundary faces = 9109

Processor 6
    Number of cells = 4500
    Number of faces shared with processor 5 = 25
    Number of faces shared with processor 7 = 26
    Number of faces shared with processor 14 = 176
    Number of faces shared with processor 15 = 1
    Number of processor patches = 4
    Number of processor faces = 228
    Number of boundary faces = 9174

Processor 7
    Number of cells = 4500
    Number of faces shared with processor 6 = 26
    Number of faces shared with processor 15 = 175
    Number of processor patches = 2
    Number of processor faces = 201
    Number of boundary faces = 9199

Processor 8
    Number of cells = 4500
    Number of faces shared with processor 0 = 182
    Number of faces shared with processor 9 = 20
    Number of faces shared with processor 16 = 183
    Number of faces shared with processor 17 = 7
    Number of processor patches = 4
    Number of processor faces = 392
    Number of boundary faces = 9024

Processor 9
    Number of cells = 4500
    Number of faces shared with processor 0 = 4
    Number of faces shared with processor 1 = 194
    Number of faces shared with processor 8 = 20
    Number of faces shared with processor 10 = 6
    Number of faces shared with processor 17 = 199
    Number of faces shared with processor 18 = 7
    Number of faces shared with processor 26 = 15
    Number of faces shared with processor 34 = 1
    Number of processor patches = 8
    Number of processor faces = 446
    Number of boundary faces = 9000

Processor 10
    Number of cells = 4500
    Number of faces shared with processor 1 = 7
    Number of faces shared with processor 2 = 215
    Number of faces shared with processor 9 = 6
    Number of faces shared with processor 11 = 2
    Number of faces shared with processor 18 = 239
    Number of faces shared with processor 19 = 13
    Number of faces shared with processor 27 = 9
    Number of faces shared with processor 35 = 7
    Number of faces shared with processor 43 = 6
    Number of processor patches = 9
    Number of processor faces = 504
    Number of boundary faces = 9000

Processor 11
    Number of cells = 4500
    Number of faces shared with processor 2 = 11
    Number of faces shared with processor 3 = 290
    Number of faces shared with processor 4 = 16
    Number of faces shared with processor 10 = 2
    Number of faces shared with processor 19 = 293
    Number of processor patches = 5
    Number of processor faces = 612
    Number of boundary faces = 9000

Processor 12
    Number of cells = 4500
    Number of faces shared with processor 4 = 118
    Number of faces shared with processor 5 = 2
    Number of faces shared with processor 13 = 37
    Number of faces shared with processor 19 = 11
    Number of faces shared with processor 20 = 119
    Number of faces shared with processor 27 = 18
    Number of faces shared with processor 35 = 9
    Number of processor patches = 7
    Number of processor faces = 314
    Number of boundary faces = 9000

Processor 13
    Number of cells = 4500
    Number of faces shared with processor 5 = 109
    Number of faces shared with processor 12 = 37
    Number of faces shared with processor 14 = 9
    Number of faces shared with processor 20 = 2
    Number of faces shared with processor 21 = 115
    Number of faces shared with processor 22 = 24
    Number of faces shared with processor 30 = 12
    Number of processor patches = 7
    Number of processor faces = 308
    Number of boundary faces = 9000

Processor 14
    Number of cells = 4500
    Number of faces shared with processor 5 = 17
    Number of faces shared with processor 6 = 176
    Number of faces shared with processor 13 = 9
    Number of faces shared with processor 15 = 27
    Number of faces shared with processor 22 = 177
    Number of processor patches = 5
    Number of processor faces = 406
    Number of boundary faces = 9000

Processor 15
    Number of cells = 4500
    Number of faces shared with processor 6 = 1
    Number of faces shared with processor 7 = 175
    Number of faces shared with processor 14 = 27
    Number of faces shared with processor 23 = 174
    Number of processor patches = 4
    Number of processor faces = 377
    Number of boundary faces = 9027

Processor 16
    Number of cells = 4500
    Number of faces shared with processor 8 = 183
    Number of faces shared with processor 17 = 9
    Number of faces shared with processor 24 = 185
    Number of faces shared with processor 25 = 16
    Number of processor patches = 4
    Number of processor faces = 393
    Number of boundary faces = 9025

Processor 17
    Number of cells = 4500
    Number of faces shared with processor 8 = 7
    Number of faces shared with processor 9 = 199
    Number of faces shared with processor 16 = 9
    Number of faces shared with processor 25 = 222
    Number of faces shared with processor 34 = 46
    Number of processor patches = 5
    Number of processor faces = 483
    Number of boundary faces = 9007

Processor 18
    Number of cells = 4500
    Number of faces shared with processor 9 = 7
    Number of faces shared with processor 10 = 239
    Number of faces shared with processor 26 = 220
    Number of faces shared with processor 43 = 2
    Number of faces shared with processor 51 = 36
    Number of processor patches = 5
    Number of processor faces = 504
    Number of boundary faces = 9050

Processor 19
    Number of cells = 4500
    Number of faces shared with processor 4 = 6
    Number of faces shared with processor 10 = 13
    Number of faces shared with processor 11 = 293
    Number of faces shared with processor 12 = 11
    Number of faces shared with processor 27 = 297
    Number of processor patches = 5
    Number of processor faces = 620
    Number of boundary faces = 9000

Processor 20
    Number of cells = 4500
    Number of faces shared with processor 12 = 119
    Number of faces shared with processor 13 = 2
    Number of faces shared with processor 21 = 20
    Number of faces shared with processor 28 = 257
    Number of faces shared with processor 35 = 12
    Number of faces shared with processor 37 = 18
    Number of faces shared with processor 43 = 13
    Number of faces shared with processor 51 = 3
    Number of processor patches = 8
    Number of processor faces = 444
    Number of boundary faces = 9358

Processor 21
    Number of cells = 4500
    Number of faces shared with processor 13 = 115
    Number of faces shared with processor 20 = 20
    Number of faces shared with processor 29 = 132
    Number of faces shared with processor 30 = 13
    Number of faces shared with processor 46 = 30
    Number of faces shared with processor 54 = 21
    Number of processor patches = 6
    Number of processor faces = 331
    Number of boundary faces = 9189

Processor 22
    Number of cells = 4500
    Number of faces shared with processor 13 = 24
    Number of faces shared with processor 14 = 177
    Number of faces shared with processor 23 = 26
    Number of faces shared with processor 30 = 180
    Number of faces shared with processor 31 = 1
    Number of processor patches = 5
    Number of processor faces = 408
    Number of boundary faces = 9000

Processor 23
    Number of cells = 4500
    Number of faces shared with processor 15 = 174
    Number of faces shared with processor 22 = 26
    Number of faces shared with processor 31 = 174
    Number of processor patches = 3
    Number of processor faces = 374
    Number of boundary faces = 9026

Processor 24
    Number of cells = 4500
    Number of faces shared with processor 16 = 185
    Number of faces shared with processor 25 = 6
    Number of faces shared with processor 32 = 163
    Number of faces shared with processor 33 = 19
    Number of processor patches = 4
    Number of processor faces = 373
    Number of boundary faces = 9047

Processor 25
    Number of cells = 4500
    Number of faces shared with processor 16 = 16
    Number of faces shared with processor 17 = 222
    Number of faces shared with processor 24 = 6
    Number of faces shared with processor 33 = 100
    Number of processor patches = 4
    Number of processor faces = 344
    Number of boundary faces = 9100

Processor 26
    Number of cells = 4500
    Number of faces shared with processor 9 = 15
    Number of faces shared with processor 18 = 220
    Number of faces shared with processor 34 = 127
    Number of processor patches = 3
    Number of processor faces = 362
    Number of boundary faces = 9078

Processor 27
    Number of cells = 4500
    Number of faces shared with processor 10 = 9
    Number of faces shared with processor 12 = 18
    Number of faces shared with processor 19 = 297
    Number of faces shared with processor 35 = 306
    Number of processor patches = 4
    Number of processor faces = 630
    Number of boundary faces = 9000

Processor 28
    Number of cells = 4500
    Number of faces shared with processor 20 = 257
    Number of faces shared with processor 36 = 249
    Number of faces shared with processor 37 = 11
    Number of faces shared with processor 45 = 2
    Number of faces shared with processor 51 = 21
    Number of processor patches = 5
    Number of processor faces = 540
    Number of boundary faces = 9000

Processor 29
    Number of cells = 4500
    Number of faces shared with processor 21 = 132
    Number of faces shared with processor 37 = 256
    Number of faces shared with processor 54 = 10
    Number of processor patches = 3
    Number of processor faces = 398
    Number of boundary faces = 9114

Processor 30
    Number of cells = 4500
    Number of faces shared with processor 13 = 12
    Number of faces shared with processor 21 = 13
    Number of faces shared with processor 22 = 180
    Number of faces shared with processor 31 = 21
    Number of faces shared with processor 38 = 60
    Number of faces shared with processor 39 = 18
    Number of processor patches = 6
    Number of processor faces = 304
    Number of boundary faces = 9218

Processor 31
    Number of cells = 4500
    Number of faces shared with processor 22 = 1
    Number of faces shared with processor 23 = 174
    Number of faces shared with processor 30 = 21
    Number of faces shared with processor 39 = 125
    Number of processor patches = 4
    Number of processor faces = 321
    Number of boundary faces = 9157

Processor 32
    Number of cells = 4500
    Number of faces shared with processor 24 = 163
    Number of faces shared with processor 33 = 20
    Number of faces shared with processor 40 = 180
    Number of faces shared with processor 41 = 5
    Number of processor patches = 4
    Number of processor faces = 368
    Number of boundary faces = 9044

Processor 33
    Number of cells = 4500
    Number of faces shared with processor 24 = 19
    Number of faces shared with processor 25 = 100
    Number of faces shared with processor 32 = 20
    Number of faces shared with processor 34 = 7
    Number of faces shared with processor 41 = 173
    Number of faces shared with processor 42 = 15
    Number of processor patches = 6
    Number of processor faces = 334
    Number of boundary faces = 9252

Processor 34
    Number of cells = 4500
    Number of faces shared with processor 9 = 1
    Number of faces shared with processor 17 = 46
    Number of faces shared with processor 26 = 127
    Number of faces shared with processor 33 = 7
    Number of faces shared with processor 42 = 163
    Number of faces shared with processor 51 = 17
    Number of processor patches = 6
    Number of processor faces = 361
    Number of boundary faces = 9233

Processor 35
    Number of cells = 4500
    Number of faces shared with processor 10 = 7
    Number of faces shared with processor 12 = 9
    Number of faces shared with processor 20 = 12
    Number of faces shared with processor 27 = 306
    Number of faces shared with processor 43 = 320
    Number of processor patches = 5
    Number of processor faces = 654
    Number of boundary faces = 9000

Processor 36
    Number of cells = 4500
    Number of faces shared with processor 28 = 249
    Number of faces shared with processor 44 = 246
    Number of faces shared with processor 45 = 17
    Number of faces shared with processor 51 = 13
    Number of faces shared with processor 59 = 7
    Number of processor patches = 5
    Number of processor faces = 532
    Number of boundary faces = 9000

Processor 37
    Number of cells = 4500
    Number of faces shared with processor 20 = 18
    Number of faces shared with processor 28 = 11
    Number of faces shared with processor 29 = 256
    Number of faces shared with processor 45 = 289
    Number of faces shared with processor 54 = 4
    Number of processor patches = 5
    Number of processor faces = 578
    Number of boundary faces = 9058

Processor 38
    Number of cells = 4500
    Number of faces shared with processor 30 = 60
    Number of faces shared with processor 39 = 1
    Number of faces shared with processor 46 = 189
    Number of faces shared with processor 47 = 27
    Number of processor patches = 4
    Number of processor faces = 277
    Number of boundary faces = 9101

Processor 39
    Number of cells = 4500
    Number of faces shared with processor 30 = 18
    Number of faces shared with processor 31 = 125
    Number of faces shared with processor 38 = 1
    Number of faces shared with processor 47 = 201
    Number of processor patches = 4
    Number of processor faces = 345
    Number of boundary faces = 9095

Processor 40
    Number of cells = 4500
    Number of faces shared with processor 32 = 180
    Number of faces shared with processor 41 = 21
    Number of faces shared with processor 48 = 180
    Number of faces shared with processor 49 = 4
    Number of processor patches = 4
    Number of processor faces = 385
    Number of boundary faces = 9025

Processor 41
    Number of cells = 4500
    Number of faces shared with processor 32 = 5
    Number of faces shared with processor 33 = 173
    Number of faces shared with processor 40 = 21
    Number of faces shared with processor 42 = 18
    Number of faces shared with processor 49 = 172
    Number of faces shared with processor 50 = 7
    Number of processor patches = 6
    Number of processor faces = 396
    Number of boundary faces = 9000

Processor 42
    Number of cells = 4500
    Number of faces shared with processor 33 = 15
    Number of faces shared with processor 34 = 163
    Number of faces shared with processor 41 = 18
    Number of faces shared with processor 50 = 156
    Number of faces shared with processor 51 = 19
    Number of faces shared with processor 59 = 7
    Number of processor patches = 6
    Number of processor faces = 378
    Number of boundary faces = 9000

Processor 43
    Number of cells = 4500
    Number of faces shared with processor 10 = 6
    Number of faces shared with processor 18 = 2
    Number of faces shared with processor 20 = 13
    Number of faces shared with processor 35 = 320
    Number of faces shared with processor 51 = 130
    Number of processor patches = 5
    Number of processor faces = 471
    Number of boundary faces = 9195

Processor 44
    Number of cells = 4500
    Number of faces shared with processor 36 = 246
    Number of faces shared with processor 45 = 11
    Number of faces shared with processor 52 = 244
    Number of faces shared with processor 53 = 6
    Number of faces shared with processor 59 = 19
    Number of processor patches = 5
    Number of processor faces = 526
    Number of boundary faces = 9000

Processor 45
    Number of cells = 4500
    Number of faces shared with processor 28 = 2
    Number of faces shared with processor 36 = 17
    Number of faces shared with processor 37 = 289
    Number of faces shared with processor 44 = 11
    Number of faces shared with processor 53 = 267
    Number of faces shared with processor 54 = 7
    Number of faces shared with processor 62 = 1
    Number of processor patches = 7
    Number of processor faces = 594
    Number of boundary faces = 9000

Processor 46
    Number of cells = 4500
    Number of faces shared with processor 21 = 30
    Number of faces shared with processor 38 = 189
    Number of faces shared with processor 47 = 3
    Number of faces shared with processor 54 = 213
    Number of faces shared with processor 55 = 10
    Number of processor patches = 5
    Number of processor faces = 445
    Number of boundary faces = 9041

Processor 47
    Number of cells = 4500
    Number of faces shared with processor 38 = 27
    Number of faces shared with processor 39 = 201
    Number of faces shared with processor 46 = 3
    Number of faces shared with processor 55 = 193
    Number of processor patches = 4
    Number of processor faces = 424
    Number of boundary faces = 9022

Processor 48
    Number of cells = 4500
    Number of faces shared with processor 40 = 180
    Number of faces shared with processor 49 = 24
    Number of faces shared with processor 56 = 180
    Number of faces shared with processor 57 = 2
    Number of processor patches = 4
    Number of processor faces = 386
    Number of boundary faces = 9026

Processor 49
    Number of cells = 4500
    Number of faces shared with processor 40 = 4
    Number of faces shared with processor 41 = 172
    Number of faces shared with processor 48 = 24
    Number of faces shared with processor 50 = 23
    Number of faces shared with processor 57 = 171
    Number of faces shared with processor 58 = 4
    Number of processor patches = 6
    Number of processor faces = 398
    Number of boundary faces = 9000

Processor 50
    Number of cells = 4500
    Number of faces shared with processor 41 = 7
    Number of faces shared with processor 42 = 156
    Number of faces shared with processor 49 = 23
    Number of faces shared with processor 58 = 154
    Number of faces shared with processor 59 = 28
    Number of processor patches = 5
    Number of processor faces = 368
    Number of boundary faces = 9000

Processor 51
    Number of cells = 4500
    Number of faces shared with processor 18 = 36
    Number of faces shared with processor 20 = 3
    Number of faces shared with processor 28 = 21
    Number of faces shared with processor 34 = 17
    Number of faces shared with processor 36 = 13
    Number of faces shared with processor 42 = 19
    Number of faces shared with processor 43 = 130
    Number of faces shared with processor 59 = 72
    Number of processor patches = 8
    Number of processor faces = 311
    Number of boundary faces = 9165

Processor 52
    Number of cells = 4500
    Number of faces shared with processor 44 = 244
    Number of faces shared with processor 53 = 17
    Number of faces shared with processor 59 = 18
    Number of faces shared with processor 60 = 245
    Number of faces shared with processor 61 = 2
    Number of processor patches = 5
    Number of processor faces = 526
    Number of boundary faces = 9000

Processor 53
    Number of cells = 4500
    Number of faces shared with processor 44 = 6
    Number of faces shared with processor 45 = 267
    Number of faces shared with processor 52 = 17
    Number of faces shared with processor 61 = 256
    Number of faces shared with processor 62 = 12
    Number of processor patches = 5
    Number of processor faces = 558
    Number of boundary faces = 9000

Processor 54
    Number of cells = 4500
    Number of faces shared with processor 21 = 21
    Number of faces shared with processor 29 = 10
    Number of faces shared with processor 37 = 4
    Number of faces shared with processor 45 = 7
    Number of faces shared with processor 46 = 213
    Number of faces shared with processor 55 = 17
    Number of faces shared with processor 62 = 191
    Number of faces shared with processor 63 = 3
    Number of processor patches = 8
    Number of processor faces = 466
    Number of boundary faces = 9000

Processor 55
    Number of cells = 4500
    Number of faces shared with processor 46 = 10
    Number of faces shared with processor 47 = 193
    Number of faces shared with processor 54 = 17
    Number of faces shared with processor 63 = 188
    Number of processor patches = 4
    Number of processor faces = 408
    Number of boundary faces = 9024

Processor 56
    Number of cells = 4500
    Number of faces shared with processor 48 = 180
    Number of faces shared with processor 57 = 28
    Number of processor patches = 2
    Number of processor faces = 208
    Number of boundary faces = 9206

Processor 57
    Number of cells = 4500
    Number of faces shared with processor 48 = 2
    Number of faces shared with processor 49 = 171
    Number of faces shared with processor 56 = 28
    Number of faces shared with processor 58 = 27
    Number of processor patches = 4
    Number of processor faces = 228
    Number of boundary faces = 9168

Processor 58
    Number of cells = 4500
    Number of faces shared with processor 49 = 4
    Number of faces shared with processor 50 = 154
    Number of faces shared with processor 57 = 27
    Number of faces shared with processor 59 = 29
    Number of processor patches = 4
    Number of processor faces = 214
    Number of boundary faces = 9152

Processor 59
    Number of cells = 4500
    Number of faces shared with processor 36 = 7
    Number of faces shared with processor 42 = 7
    Number of faces shared with processor 44 = 19
    Number of faces shared with processor 50 = 28
    Number of faces shared with processor 51 = 72
    Number of faces shared with processor 52 = 18
    Number of faces shared with processor 58 = 29
    Number of faces shared with processor 60 = 20
    Number of processor patches = 8
    Number of processor faces = 200
    Number of boundary faces = 9072

Processor 60
    Number of cells = 4500
    Number of faces shared with processor 52 = 245
    Number of faces shared with processor 59 = 20
    Number of faces shared with processor 61 = 20
    Number of processor patches = 3
    Number of processor faces = 285
    Number of boundary faces = 9245

Processor 61
    Number of cells = 4500
    Number of faces shared with processor 52 = 2
    Number of faces shared with processor 53 = 256
    Number of faces shared with processor 60 = 20
    Number of faces shared with processor 62 = 15
    Number of processor patches = 4
    Number of processor faces = 293
    Number of boundary faces = 9249

Processor 62
    Number of cells = 4500
    Number of faces shared with processor 45 = 1
    Number of faces shared with processor 53 = 12
    Number of faces shared with processor 54 = 191
    Number of faces shared with processor 61 = 15
    Number of faces shared with processor 63 = 24
    Number of processor patches = 5
    Number of processor faces = 243
    Number of boundary faces = 9187

Processor 63
    Number of cells = 4500
    Number of faces shared with processor 54 = 3
    Number of faces shared with processor 55 = 188
    Number of faces shared with processor 62 = 24
    Number of processor patches = 3
    Number of processor faces = 215
    Number of boundary faces = 9209

Number of processor faces = 12213
Max number of cells = 4500 (0% above average 4500)
Max number of processor patches = 9 (84.6154% above average 4.875)
Max number of faces between processors = 654 (71.3584% above average 381.656)

Time = 0

Processor 0: field transfer
Processor 1: field transfer
Processor 2: field transfer
Processor 3: field transfer
Processor 4: field transfer
Processor 5: field transfer
Processor 6: field transfer
Processor 7: field transfer
Processor 8: field transfer
Processor 9: field transfer
Processor 10: field transfer
Processor 11: field transfer
Processor 12: field transfer
Processor 13: field transfer
Processor 14: field transfer
Processor 15: field transfer
Processor 16: field transfer
Processor 17: field transfer
Processor 18: field transfer
Processor 19: field transfer
Processor 20: field transfer
Processor 21: field transfer
Processor 22: field transfer
Processor 23: field transfer
Processor 24: field transfer
Processor 25: field transfer
Processor 26: field transfer
Processor 27: field transfer
Processor 28: field transfer
Processor 29: field transfer
Processor 30: field transfer
Processor 31: field transfer
Processor 32: field transfer
Processor 33: field transfer
Processor 34: field transfer
Processor 35: field transfer
Processor 36: field transfer
Processor 37: field transfer
Processor 38: field transfer
Processor 39: field transfer
Processor 40: field transfer
Processor 41: field transfer
Processor 42: field transfer
Processor 43: field transfer
Processor 44: field transfer
Processor 45: field transfer
Processor 46: field transfer
Processor 47: field transfer
Processor 48: field transfer
Processor 49: field transfer
Processor 50: field transfer
Processor 51: field transfer
Processor 52: field transfer
Processor 53: field transfer
Processor 54: field transfer
Processor 55: field transfer
Processor 56: field transfer
Processor 57: field transfer
Processor 58: field transfer
Processor 59: field transfer
Processor 60: field transfer
Processor 61: field transfer
Processor 62: field transfer
Processor 63: field transfer

End

