/*---------------------------------------------------------------------------*\
  =========                 |
  \\      /  F ield         | OpenFOAM: The Open Source CFD Toolbox
   \\    /   O peration     | Website:  https://openfoam.org
    \\  /    A nd           | Version:  7
     \\/     M anipulation  |
\*---------------------------------------------------------------------------*/
Build  : 7-49b2b3b8b082
Exec   : reconstructPar
Date   : May 09 2022
Time   : 19:58:37
Host   : "c401-123.stampede2.tacc.utexas.edu"
PID    : 202743
I/O    : uncollated
Case   : /work2/07674/bradenp/stampede2/diamond-airfoil/simulations/unorganized/test_new_mesh
nProcs : 1
sigFpe : Enabling floating point exception trapping (FOAM_SIGFPE).
fileModificationChecking : Monitoring run-time modified files using timeStampMaster (fileModificationSkew 10)
allowSystemOperations : Allowing user-supplied system call operations

// * * * * * * * * * * * * * * * * * * * * * * * * * * * * * * * * * * * * * //
Create time



Reconstructing fields for mesh region0

Time = 0.5

Reconstructing FV fields

    Reconstructing volScalarFields

        T
        p
        rho

    Reconstructing volVectorFields

        U

Reconstructing point fields

No point fields

No lagrangian fields

Time = 1

Reconstructing FV fields

    Reconstructing volScalarFields

        T
        p
        rho

    Reconstructing volVectorFields

        U

Reconstructing point fields

No point fields

No lagrangian fields

Time = 1.5

Reconstructing FV fields

    Reconstructing volScalarFields

        T
        p
        rho

    Reconstructing volVectorFields

        U

Reconstructing point fields

No point fields

No lagrangian fields

Time = 2

Reconstructing FV fields

    Reconstructing volScalarFields

        T
        p
        rho

    Reconstructing volVectorFields

        U

Reconstructing point fields

No point fields

No lagrangian fields

Time = 2.5

Reconstructing FV fields

    Reconstructing volScalarFields

        T
        p
        rho

    Reconstructing volVectorFields

        U

Reconstructing point fields

No point fields

No lagrangian fields

Time = 3

Reconstructing FV fields

    Reconstructing volScalarFields

        T
        p
        rho

    Reconstructing volVectorFields

        U

Reconstructing point fields

No point fields

No lagrangian fields

Time = 3.5001

Reconstructing FV fields

    Reconstructing volScalarFields

        T
        p
        rho

    Reconstructing volVectorFields

        U

Reconstructing point fields

No point fields

No lagrangian fields

Time = 4.0001

Reconstructing FV fields

    Reconstructing volScalarFields

        T
        p
        rho

    Reconstructing volVectorFields

        U

Reconstructing point fields

No point fields

No lagrangian fields

Time = 4.5001

Reconstructing FV fields

    Reconstructing volScalarFields

        T
        p
        rho

    Reconstructing volVectorFields

        U

Reconstructing point fields

No point fields

No lagrangian fields

Time = 5.0001

Reconstructing FV fields

    Reconstructing volScalarFields

        T
        p
        rho

    Reconstructing volVectorFields

        U

Reconstructing point fields

No point fields

No lagrangian fields

Time = 5.5001

Reconstructing FV fields

    Reconstructing volScalarFields

        T
        p
        rho

    Reconstructing volVectorFields

        U

Reconstructing point fields

No point fields

No lagrangian fields

Time = 6.0001

Reconstructing FV fields

    Reconstructing volScalarFields

        T
        p
        rho

    Reconstructing volVectorFields

        U

Reconstructing point fields

No point fields

No lagrangian fields

Time = 6.5001

Reconstructing FV fields

    Reconstructing volScalarFields

        T
        p
        rho

    Reconstructing volVectorFields

        U

Reconstructing point fields

No point fields

No lagrangian fields

Time = 7.0001

Reconstructing FV fields

    Reconstructing volScalarFields

        T
        p
        rho

    Reconstructing volVectorFields

        U

Reconstructing point fields

No point fields

No lagrangian fields


End

