/*---------------------------------------------------------------------------*\
  =========                 |
  \\      /  F ield         | OpenFOAM: The Open Source CFD Toolbox
   \\    /   O peration     | Website:  https://openfoam.org
    \\  /    A nd           | Version:  7
     \\/     M anipulation  |
\*---------------------------------------------------------------------------*/
Build  : 7-49b2b3b8b082
Exec   : rhoCentralFoam -parallel
Date   : May 09 2022
Time   : 14:49:35
Host   : "c469-093.stampede2.tacc.utexas.edu"
PID    : 227890
I/O    : uncollated
Case   : /work2/07674/bradenp/stampede2/diamond-airfoil/simulations/unorganized/test_new_mesh
nProcs : 64
Slaves : 
63
(
"c469-093.stampede2.tacc.utexas.edu.227891"
"c469-093.stampede2.tacc.utexas.edu.227892"
"c469-093.stampede2.tacc.utexas.edu.227893"
"c469-093.stampede2.tacc.utexas.edu.227894"
"c469-093.stampede2.tacc.utexas.edu.227895"
"c469-093.stampede2.tacc.utexas.edu.227896"
"c469-093.stampede2.tacc.utexas.edu.227897"
"c469-093.stampede2.tacc.utexas.edu.227898"
"c469-093.stampede2.tacc.utexas.edu.227899"
"c469-093.stampede2.tacc.utexas.edu.227900"
"c469-093.stampede2.tacc.utexas.edu.227901"
"c469-093.stampede2.tacc.utexas.edu.227902"
"c469-093.stampede2.tacc.utexas.edu.227903"
"c469-093.stampede2.tacc.utexas.edu.227904"
"c469-093.stampede2.tacc.utexas.edu.227905"
"c469-093.stampede2.tacc.utexas.edu.227906"
"c469-093.stampede2.tacc.utexas.edu.227907"
"c469-093.stampede2.tacc.utexas.edu.227908"
"c469-093.stampede2.tacc.utexas.edu.227909"
"c469-093.stampede2.tacc.utexas.edu.227910"
"c469-093.stampede2.tacc.utexas.edu.227911"
"c469-093.stampede2.tacc.utexas.edu.227912"
"c469-093.stampede2.tacc.utexas.edu.227913"
"c469-093.stampede2.tacc.utexas.edu.227914"
"c469-093.stampede2.tacc.utexas.edu.227915"
"c469-093.stampede2.tacc.utexas.edu.227916"
"c469-093.stampede2.tacc.utexas.edu.227917"
"c469-093.stampede2.tacc.utexas.edu.227918"
"c469-093.stampede2.tacc.utexas.edu.227919"
"c469-093.stampede2.tacc.utexas.edu.227920"
"c469-093.stampede2.tacc.utexas.edu.227921"
"c469-093.stampede2.tacc.utexas.edu.227922"
"c469-093.stampede2.tacc.utexas.edu.227923"
"c469-093.stampede2.tacc.utexas.edu.227924"
"c469-093.stampede2.tacc.utexas.edu.227925"
"c469-093.stampede2.tacc.utexas.edu.227926"
"c469-093.stampede2.tacc.utexas.edu.227927"
"c469-093.stampede2.tacc.utexas.edu.227928"
"c469-093.stampede2.tacc.utexas.edu.227929"
"c469-093.stampede2.tacc.utexas.edu.227930"
"c469-093.stampede2.tacc.utexas.edu.227931"
"c469-093.stampede2.tacc.utexas.edu.227932"
"c469-093.stampede2.tacc.utexas.edu.227933"
"c469-093.stampede2.tacc.utexas.edu.227934"
"c469-093.stampede2.tacc.utexas.edu.227935"
"c469-093.stampede2.tacc.utexas.edu.227936"
"c469-093.stampede2.tacc.utexas.edu.227937"
"c469-093.stampede2.tacc.utexas.edu.227938"
"c469-093.stampede2.tacc.utexas.edu.227939"
"c469-093.stampede2.tacc.utexas.edu.227940"
"c469-093.stampede2.tacc.utexas.edu.227941"
"c469-093.stampede2.tacc.utexas.edu.227942"
"c469-093.stampede2.tacc.utexas.edu.227943"
"c469-093.stampede2.tacc.utexas.edu.227944"
"c469-093.stampede2.tacc.utexas.edu.227945"
"c469-093.stampede2.tacc.utexas.edu.227946"
"c469-093.stampede2.tacc.utexas.edu.227947"
"c469-093.stampede2.tacc.utexas.edu.227948"
"c469-093.stampede2.tacc.utexas.edu.227949"
"c469-093.stampede2.tacc.utexas.edu.227950"
"c469-093.stampede2.tacc.utexas.edu.227951"
"c469-093.stampede2.tacc.utexas.edu.227952"
"c469-093.stampede2.tacc.utexas.edu.227953"
)

Pstream initialized with:
    floatTransfer      : 0
    nProcsSimpleSum    : 0
    commsType          : nonBlocking
    polling iterations : 0
sigFpe : Enabling floating point exception trapping (FOAM_SIGFPE).
fileModificationChecking : Monitoring run-time modified files using timeStampMaster (fileModificationSkew 10)
allowSystemOperations : Allowing user-supplied system call operations

// * * * * * * * * * * * * * * * * * * * * * * * * * * * * * * * * * * * * * //
Create time

Create mesh for time = 0

Reading thermophysical properties

Selecting thermodynamics package 
{
    type            hePsiThermo;
    mixture         pureMixture;
    transport       const;
    thermo          hConst;
    equationOfState perfectGas;
    specie          specie;
    energy          sensibleInternalEnergy;
}

Reading field U

Creating turbulence model

Selecting turbulence model type laminar
Selecting laminar stress model Stokes
fluxScheme: Kurganov

Starting time loop

Mean and max Courant Numbers = 0.12226 1.31124
Time = 0.0005

diagonal:  Solving for rho, Initial residual = 0, Final residual = 0, No Iterations 0
diagonal:  Solving for rhoUx, Initial residual = 0, Final residual = 0, No Iterations 0
diagonal:  Solving for rhoUy, Initial residual = 0, Final residual = 0, No Iterations 0
diagonal:  Solving for rhoE, Initial residual = 0, Final residual = 0, No Iterations 0
ExecutionTime = 0.31 s  ClockTime = 0 s

Mean and max Courant Numbers = 0.122262 1.31138
Time = 0.001

diagonal:  Solving for rho, Initial residual = 0, Final residual = 0, No Iterations 0
diagonal:  Solving for rhoUx, Initial residual = 0, Final residual = 0, No Iterations 0
diagonal:  Solving for rhoUy, Initial residual = 0, Final residual = 0, No Iterations 0
diagonal:  Solving for rhoE, Initial residual = 0, Final residual = 0, No Iterations 0
ExecutionTime = 0.41 s  ClockTime = 0 s

Mean and max Courant Numbers = 0.122258 1.31313
Time = 0.0015

diagonal:  Solving for rho, Initial residual = 0, Final residual = 0, No Iterations 0
diagonal:  Solving for rhoUx, Initial residual = 0, Final residual = 0, No Iterations 0
diagonal:  Solving for rhoUy, Initial residual = 0, Final residual = 0, No Iterations 0
diagonal:  Solving for rhoE, Initial residual = 0, Final residual = 0, No Iterations 0
ExecutionTime = 0.45 s  ClockTime = 0 s

Mean and max Courant Numbers = 0.122257 1.4042
Time = 0.002

diagonal:  Solving for rho, Initial residual = 0, Final residual = 0, No Iterations 0
diagonal:  Solving for rhoUx, Initial residual = 0, Final residual = 0, No Iterations 0
diagonal:  Solving for rhoUy, Initial residual = 0, Final residual = 0, No Iterations 0
diagonal:  Solving for rhoE, Initial residual = 0, Final residual = 0, No Iterations 0
ExecutionTime = 0.56 s  ClockTime = 0 s

[31] #0  Foam::error::printStack(Foam::Ostream&) at ??:?
[31] #1  Foam::sigFpe::sigHandler(int) at ??:?
[31] #2  ? in "/lib64/libpthread.so.0"
[31] #3  Foam::sqrt(Foam::Field<double>&, Foam::UList<double> const&) at ??:?
[31] #4  Foam::tmp<Foam::GeometricField<double, Foam::volMesh> > Foam::sqrt<Foam::fvPatchField, Foam::volMesh>(Foam::tmp<Foam::GeometricField<double, Foam::volMesh> > const&) at ??:?
[31] #5  ? at ??:?
[31] #6  __libc_start_main in "/lib64/libc.so.6"
[31] #7  ? at ??:?

===================================================================================
=   BAD TERMINATION OF ONE OF YOUR APPLICATION PROCESSES
=   PID 227921 RUNNING AT c469-093
=   EXIT CODE: 8
=   CLEANING UP REMAINING PROCESSES
=   YOU CAN IGNORE THE BELOW CLEANUP MESSAGES
===================================================================================
   Intel(R) MPI Library troubleshooting guide:
      https://software.intel.com/node/561764
===================================================================================
