/*---------------------------------------------------------------------------*\
  =========                 |
  \\      /  F ield         | OpenFOAM: The Open Source CFD Toolbox
   \\    /   O peration     | Website:  https://openfoam.org
    \\  /    A nd           | Version:  7
     \\/     M anipulation  |
\*---------------------------------------------------------------------------*/
Build  : 7-49b2b3b8b082
Exec   : decomposePar
Date   : May 09 2022
Time   : 14:19:20
Host   : "c433-042.stampede2.tacc.utexas.edu"
PID    : 206598
I/O    : uncollated
Case   : /work2/07674/bradenp/stampede2/diamond-airfoil/simulations/unorganized/test_new_mesh
nProcs : 1
sigFpe : Enabling floating point exception trapping (FOAM_SIGFPE).
fileModificationChecking : Monitoring run-time modified files using timeStampMaster (fileModificationSkew 10)
allowSystemOperations : Allowing user-supplied system call operations

// * * * * * * * * * * * * * * * * * * * * * * * * * * * * * * * * * * * * * //
Create time



Decomposing mesh region0

Create mesh

Calculating distribution of cells
 Foam::decompositionMethod::New 
{
    numberOfSubdomains 64;
    method          hierarchical;
    simpleCoeffs
    {
        n               ( 8 8 1 );
        delta           0.001;
    }
    hierarchicalCoeffs
    {
        n               ( 8 8 1 );
        delta           0.001;
        order           xyz;
    }
}

Selecting decompositionMethod hierarchical

Finished decomposition in 0.33 s

Calculating original mesh data

Distributing cells to processors

Distributing faces to processors

Distributing points to processors

Constructing processor meshes

Processor 0
    Number of cells = 4312
    Number of faces shared with processor 1 = 34
    Number of faces shared with processor 8 = 124
    Number of faces shared with processor 9 = 4
    Number of processor patches = 3
    Number of processor faces = 162
    Number of boundary faces = 8780

Processor 1
    Number of cells = 4312
    Number of faces shared with processor 0 = 34
    Number of faces shared with processor 2 = 24
    Number of faces shared with processor 9 = 126
    Number of faces shared with processor 10 = 17
    Number of processor patches = 4
    Number of processor faces = 201
    Number of boundary faces = 8743

Processor 2
    Number of cells = 4312
    Number of faces shared with processor 1 = 24
    Number of faces shared with processor 3 = 28
    Number of faces shared with processor 10 = 163
    Number of faces shared with processor 11 = 3
    Number of processor patches = 4
    Number of processor faces = 218
    Number of boundary faces = 8780

Processor 3
    Number of cells = 4312
    Number of faces shared with processor 2 = 28
    Number of faces shared with processor 4 = 28
    Number of faces shared with processor 11 = 156
    Number of processor patches = 3
    Number of processor faces = 212
    Number of boundary faces = 8780

Processor 4
    Number of cells = 4312
    Number of faces shared with processor 3 = 28
    Number of faces shared with processor 5 = 46
    Number of faces shared with processor 11 = 29
    Number of faces shared with processor 12 = 54
    Number of faces shared with processor 13 = 35
    Number of faces shared with processor 19 = 24
    Number of processor patches = 6
    Number of processor faces = 216
    Number of boundary faces = 8678

Processor 5
    Number of cells = 4312
    Number of faces shared with processor 4 = 46
    Number of faces shared with processor 6 = 39
    Number of faces shared with processor 13 = 94
    Number of faces shared with processor 14 = 8
    Number of processor patches = 4
    Number of processor faces = 187
    Number of boundary faces = 8717

Processor 6
    Number of cells = 4312
    Number of faces shared with processor 5 = 39
    Number of faces shared with processor 7 = 39
    Number of faces shared with processor 14 = 111
    Number of faces shared with processor 15 = 2
    Number of processor patches = 4
    Number of processor faces = 191
    Number of boundary faces = 8733

Processor 7
    Number of cells = 4312
    Number of faces shared with processor 6 = 39
    Number of faces shared with processor 15 = 114
    Number of processor patches = 2
    Number of processor faces = 153
    Number of boundary faces = 8775

Processor 8
    Number of cells = 4312
    Number of faces shared with processor 0 = 124
    Number of faces shared with processor 9 = 26
    Number of faces shared with processor 16 = 126
    Number of faces shared with processor 17 = 12
    Number of processor patches = 4
    Number of processor faces = 288
    Number of boundary faces = 8658

Processor 9
    Number of cells = 4312
    Number of faces shared with processor 0 = 4
    Number of faces shared with processor 1 = 126
    Number of faces shared with processor 8 = 26
    Number of faces shared with processor 10 = 3
    Number of faces shared with processor 17 = 149
    Number of faces shared with processor 18 = 16
    Number of faces shared with processor 26 = 10
    Number of faces shared with processor 34 = 18
    Number of faces shared with processor 42 = 6
    Number of processor patches = 9
    Number of processor faces = 358
    Number of boundary faces = 8624

Processor 10
    Number of cells = 4312
    Number of faces shared with processor 1 = 17
    Number of faces shared with processor 2 = 163
    Number of faces shared with processor 9 = 3
    Number of faces shared with processor 11 = 24
    Number of faces shared with processor 18 = 176
    Number of faces shared with processor 19 = 9
    Number of processor patches = 6
    Number of processor faces = 392
    Number of boundary faces = 8624

Processor 11
    Number of cells = 4312
    Number of faces shared with processor 2 = 3
    Number of faces shared with processor 3 = 156
    Number of faces shared with processor 4 = 29
    Number of faces shared with processor 10 = 24
    Number of faces shared with processor 19 = 158
    Number of processor patches = 5
    Number of processor faces = 370
    Number of boundary faces = 8624

Processor 12
    Number of cells = 4312
    Number of faces shared with processor 4 = 54
    Number of faces shared with processor 13 = 10
    Number of faces shared with processor 19 = 4
    Number of faces shared with processor 20 = 68
    Number of faces shared with processor 21 = 42
    Number of faces shared with processor 27 = 29
    Number of faces shared with processor 29 = 17
    Number of faces shared with processor 35 = 30
    Number of faces shared with processor 37 = 1
    Number of faces shared with processor 43 = 7
    Number of faces shared with processor 45 = 29
    Number of processor patches = 11
    Number of processor faces = 291
    Number of boundary faces = 8715

Processor 13
    Number of cells = 4312
    Number of faces shared with processor 4 = 35
    Number of faces shared with processor 5 = 94
    Number of faces shared with processor 12 = 10
    Number of faces shared with processor 14 = 32
    Number of faces shared with processor 21 = 97
    Number of faces shared with processor 22 = 16
    Number of processor patches = 6
    Number of processor faces = 284
    Number of boundary faces = 8624

Processor 14
    Number of cells = 4312
    Number of faces shared with processor 5 = 8
    Number of faces shared with processor 6 = 111
    Number of faces shared with processor 13 = 32
    Number of faces shared with processor 15 = 36
    Number of faces shared with processor 22 = 110
    Number of faces shared with processor 23 = 3
    Number of processor patches = 6
    Number of processor faces = 300
    Number of boundary faces = 8624

Processor 15
    Number of cells = 4312
    Number of faces shared with processor 6 = 2
    Number of faces shared with processor 7 = 114
    Number of faces shared with processor 14 = 36
    Number of faces shared with processor 23 = 114
    Number of processor patches = 4
    Number of processor faces = 266
    Number of boundary faces = 8662

Processor 16
    Number of cells = 4312
    Number of faces shared with processor 8 = 126
    Number of faces shared with processor 17 = 10
    Number of faces shared with processor 24 = 137
    Number of faces shared with processor 25 = 34
    Number of processor patches = 4
    Number of processor faces = 307
    Number of boundary faces = 8657

Processor 17
    Number of cells = 4312
    Number of faces shared with processor 8 = 12
    Number of faces shared with processor 9 = 149
    Number of faces shared with processor 16 = 10
    Number of faces shared with processor 25 = 166
    Number of faces shared with processor 42 = 56
    Number of processor patches = 5
    Number of processor faces = 393
    Number of boundary faces = 8641

Processor 18
    Number of cells = 4312
    Number of faces shared with processor 9 = 16
    Number of faces shared with processor 10 = 176
    Number of faces shared with processor 19 = 16
    Number of faces shared with processor 26 = 200
    Number of faces shared with processor 27 = 24
    Number of processor patches = 5
    Number of processor faces = 432
    Number of boundary faces = 8624

Processor 19
    Number of cells = 4312
    Number of faces shared with processor 4 = 24
    Number of faces shared with processor 10 = 9
    Number of faces shared with processor 11 = 158
    Number of faces shared with processor 12 = 4
    Number of faces shared with processor 18 = 16
    Number of faces shared with processor 27 = 161
    Number of processor patches = 6
    Number of processor faces = 372
    Number of boundary faces = 8624

Processor 20
    Number of cells = 4312
    Number of faces shared with processor 12 = 68
    Number of faces shared with processor 28 = 213
    Number of faces shared with processor 43 = 17
    Number of faces shared with processor 45 = 23
    Number of processor patches = 4
    Number of processor faces = 321
    Number of boundary faces = 8763

Processor 21
    Number of cells = 4312
    Number of faces shared with processor 12 = 42
    Number of faces shared with processor 13 = 97
    Number of faces shared with processor 22 = 23
    Number of faces shared with processor 29 = 104
    Number of faces shared with processor 30 = 26
    Number of processor patches = 5
    Number of processor faces = 292
    Number of boundary faces = 8624

Processor 22
    Number of cells = 4312
    Number of faces shared with processor 13 = 16
    Number of faces shared with processor 14 = 110
    Number of faces shared with processor 21 = 23
    Number of faces shared with processor 23 = 36
    Number of faces shared with processor 30 = 112
    Number of faces shared with processor 31 = 5
    Number of processor patches = 6
    Number of processor faces = 302
    Number of boundary faces = 8624

Processor 23
    Number of cells = 4312
    Number of faces shared with processor 14 = 3
    Number of faces shared with processor 15 = 114
    Number of faces shared with processor 22 = 36
    Number of faces shared with processor 31 = 114
    Number of processor patches = 4
    Number of processor faces = 267
    Number of boundary faces = 8663

Processor 24
    Number of cells = 4312
    Number of faces shared with processor 16 = 137
    Number of faces shared with processor 25 = 6
    Number of faces shared with processor 32 = 93
    Number of faces shared with processor 33 = 25
    Number of processor patches = 4
    Number of processor faces = 261
    Number of boundary faces = 8701

Processor 25
    Number of cells = 4312
    Number of faces shared with processor 16 = 34
    Number of faces shared with processor 17 = 166
    Number of faces shared with processor 24 = 6
    Number of faces shared with processor 33 = 58
    Number of processor patches = 4
    Number of processor faces = 264
    Number of boundary faces = 8692

Processor 26
    Number of cells = 4312
    Number of faces shared with processor 9 = 10
    Number of faces shared with processor 18 = 200
    Number of faces shared with processor 34 = 218
    Number of faces shared with processor 35 = 21
    Number of faces shared with processor 43 = 27
    Number of processor patches = 5
    Number of processor faces = 476
    Number of boundary faces = 8644

Processor 27
    Number of cells = 4312
    Number of faces shared with processor 12 = 29
    Number of faces shared with processor 18 = 24
    Number of faces shared with processor 19 = 161
    Number of faces shared with processor 35 = 166
    Number of processor patches = 4
    Number of processor faces = 380
    Number of boundary faces = 8624

Processor 28
    Number of cells = 4312
    Number of faces shared with processor 20 = 213
    Number of faces shared with processor 36 = 197
    Number of faces shared with processor 43 = 18
    Number of faces shared with processor 45 = 13
    Number of faces shared with processor 51 = 11
    Number of processor patches = 5
    Number of processor faces = 452
    Number of boundary faces = 8624

Processor 29
    Number of cells = 4312
    Number of faces shared with processor 12 = 17
    Number of faces shared with processor 21 = 104
    Number of faces shared with processor 30 = 7
    Number of faces shared with processor 37 = 138
    Number of faces shared with processor 38 = 1
    Number of faces shared with processor 46 = 67
    Number of faces shared with processor 54 = 3
    Number of processor patches = 7
    Number of processor faces = 337
    Number of boundary faces = 8785

Processor 30
    Number of cells = 4312
    Number of faces shared with processor 21 = 26
    Number of faces shared with processor 22 = 112
    Number of faces shared with processor 29 = 7
    Number of faces shared with processor 31 = 30
    Number of faces shared with processor 38 = 80
    Number of faces shared with processor 39 = 28
    Number of processor patches = 6
    Number of processor faces = 283
    Number of boundary faces = 8785

Processor 31
    Number of cells = 4312
    Number of faces shared with processor 22 = 5
    Number of faces shared with processor 23 = 114
    Number of faces shared with processor 30 = 30
    Number of faces shared with processor 39 = 99
    Number of processor patches = 4
    Number of processor faces = 248
    Number of boundary faces = 8708

Processor 32
    Number of cells = 4312
    Number of faces shared with processor 24 = 93
    Number of faces shared with processor 33 = 32
    Number of faces shared with processor 40 = 111
    Number of processor patches = 3
    Number of processor faces = 236
    Number of boundary faces = 8776

Processor 33
    Number of cells = 4312
    Number of faces shared with processor 24 = 25
    Number of faces shared with processor 25 = 58
    Number of faces shared with processor 32 = 32
    Number of faces shared with processor 40 = 1
    Number of faces shared with processor 41 = 116
    Number of faces shared with processor 42 = 29
    Number of faces shared with processor 50 = 8
    Number of processor patches = 7
    Number of processor faces = 269
    Number of boundary faces = 8769

Processor 34
    Number of cells = 4312
    Number of faces shared with processor 9 = 18
    Number of faces shared with processor 26 = 218
    Number of faces shared with processor 42 = 115
    Number of processor patches = 3
    Number of processor faces = 351
    Number of boundary faces = 8709

Processor 35
    Number of cells = 4312
    Number of faces shared with processor 12 = 30
    Number of faces shared with processor 26 = 21
    Number of faces shared with processor 27 = 166
    Number of faces shared with processor 43 = 175
    Number of processor patches = 4
    Number of processor faces = 392
    Number of boundary faces = 8624

Processor 36
    Number of cells = 4312
    Number of faces shared with processor 28 = 197
    Number of faces shared with processor 44 = 187
    Number of faces shared with processor 45 = 5
    Number of faces shared with processor 51 = 28
    Number of faces shared with processor 53 = 13
    Number of processor patches = 5
    Number of processor faces = 430
    Number of boundary faces = 8624

Processor 37
    Number of cells = 4312
    Number of faces shared with processor 12 = 1
    Number of faces shared with processor 29 = 138
    Number of faces shared with processor 45 = 222
    Number of faces shared with processor 54 = 16
    Number of processor patches = 4
    Number of processor faces = 377
    Number of boundary faces = 8693

Processor 38
    Number of cells = 4312
    Number of faces shared with processor 29 = 1
    Number of faces shared with processor 30 = 80
    Number of faces shared with processor 39 = 8
    Number of faces shared with processor 46 = 179
    Number of faces shared with processor 47 = 24
    Number of processor patches = 5
    Number of processor faces = 292
    Number of boundary faces = 8692

Processor 39
    Number of cells = 4312
    Number of faces shared with processor 30 = 28
    Number of faces shared with processor 31 = 99
    Number of faces shared with processor 38 = 8
    Number of faces shared with processor 47 = 125
    Number of processor patches = 4
    Number of processor faces = 260
    Number of boundary faces = 8686

Processor 40
    Number of cells = 4312
    Number of faces shared with processor 32 = 111
    Number of faces shared with processor 33 = 1
    Number of faces shared with processor 41 = 39
    Number of faces shared with processor 48 = 110
    Number of processor patches = 4
    Number of processor faces = 261
    Number of boundary faces = 8663

Processor 41
    Number of cells = 4312
    Number of faces shared with processor 33 = 116
    Number of faces shared with processor 40 = 39
    Number of faces shared with processor 49 = 114
    Number of faces shared with processor 50 = 37
    Number of processor patches = 4
    Number of processor faces = 306
    Number of boundary faces = 8624

Processor 42
    Number of cells = 4312
    Number of faces shared with processor 9 = 6
    Number of faces shared with processor 17 = 56
    Number of faces shared with processor 33 = 29
    Number of faces shared with processor 34 = 115
    Number of faces shared with processor 43 = 33
    Number of faces shared with processor 50 = 78
    Number of faces shared with processor 51 = 1
    Number of processor patches = 7
    Number of processor faces = 318
    Number of boundary faces = 8750

Processor 43
    Number of cells = 4312
    Number of faces shared with processor 12 = 7
    Number of faces shared with processor 20 = 17
    Number of faces shared with processor 26 = 27
    Number of faces shared with processor 28 = 18
    Number of faces shared with processor 35 = 175
    Number of faces shared with processor 42 = 33
    Number of faces shared with processor 51 = 76
    Number of processor patches = 7
    Number of processor faces = 353
    Number of boundary faces = 8853

Processor 44
    Number of cells = 4312
    Number of faces shared with processor 36 = 187
    Number of faces shared with processor 51 = 19
    Number of faces shared with processor 52 = 180
    Number of faces shared with processor 53 = 20
    Number of faces shared with processor 59 = 8
    Number of processor patches = 5
    Number of processor faces = 414
    Number of boundary faces = 8624

Processor 45
    Number of cells = 4312
    Number of faces shared with processor 12 = 29
    Number of faces shared with processor 20 = 23
    Number of faces shared with processor 28 = 13
    Number of faces shared with processor 36 = 5
    Number of faces shared with processor 37 = 222
    Number of faces shared with processor 53 = 168
    Number of faces shared with processor 54 = 16
    Number of processor patches = 7
    Number of processor faces = 476
    Number of boundary faces = 8624

Processor 46
    Number of cells = 4312
    Number of faces shared with processor 29 = 67
    Number of faces shared with processor 38 = 179
    Number of faces shared with processor 47 = 16
    Number of faces shared with processor 54 = 138
    Number of faces shared with processor 55 = 10
    Number of processor patches = 5
    Number of processor faces = 410
    Number of boundary faces = 8624

Processor 47
    Number of cells = 4312
    Number of faces shared with processor 38 = 24
    Number of faces shared with processor 39 = 125
    Number of faces shared with processor 46 = 16
    Number of faces shared with processor 55 = 121
    Number of processor patches = 4
    Number of processor faces = 286
    Number of boundary faces = 8660

Processor 48
    Number of cells = 4312
    Number of faces shared with processor 40 = 110
    Number of faces shared with processor 49 = 39
    Number of faces shared with processor 56 = 111
    Number of processor patches = 3
    Number of processor faces = 260
    Number of boundary faces = 8664

Processor 49
    Number of cells = 4312
    Number of faces shared with processor 41 = 114
    Number of faces shared with processor 48 = 39
    Number of faces shared with processor 50 = 16
    Number of faces shared with processor 57 = 113
    Number of faces shared with processor 58 = 22
    Number of processor patches = 5
    Number of processor faces = 304
    Number of boundary faces = 8624

Processor 50
    Number of cells = 4312
    Number of faces shared with processor 33 = 8
    Number of faces shared with processor 41 = 37
    Number of faces shared with processor 42 = 78
    Number of faces shared with processor 49 = 16
    Number of faces shared with processor 51 = 57
    Number of faces shared with processor 58 = 74
    Number of processor patches = 6
    Number of processor faces = 270
    Number of boundary faces = 8624

Processor 51
    Number of cells = 4312
    Number of faces shared with processor 28 = 11
    Number of faces shared with processor 36 = 28
    Number of faces shared with processor 42 = 1
    Number of faces shared with processor 43 = 76
    Number of faces shared with processor 44 = 19
    Number of faces shared with processor 50 = 57
    Number of faces shared with processor 58 = 1
    Number of faces shared with processor 59 = 75
    Number of processor patches = 8
    Number of processor faces = 268
    Number of boundary faces = 8624

Processor 52
    Number of cells = 4312
    Number of faces shared with processor 44 = 180
    Number of faces shared with processor 53 = 10
    Number of faces shared with processor 59 = 25
    Number of faces shared with processor 60 = 178
    Number of faces shared with processor 61 = 13
    Number of processor patches = 5
    Number of processor faces = 406
    Number of boundary faces = 8624

Processor 53
    Number of cells = 4312
    Number of faces shared with processor 36 = 13
    Number of faces shared with processor 44 = 20
    Number of faces shared with processor 45 = 168
    Number of faces shared with processor 52 = 10
    Number of faces shared with processor 54 = 10
    Number of faces shared with processor 61 = 146
    Number of faces shared with processor 62 = 11
    Number of processor patches = 7
    Number of processor faces = 378
    Number of boundary faces = 8624

Processor 54
    Number of cells = 4312
    Number of faces shared with processor 29 = 3
    Number of faces shared with processor 37 = 16
    Number of faces shared with processor 45 = 16
    Number of faces shared with processor 46 = 138
    Number of faces shared with processor 53 = 10
    Number of faces shared with processor 55 = 29
    Number of faces shared with processor 62 = 125
    Number of faces shared with processor 63 = 3
    Number of processor patches = 8
    Number of processor faces = 340
    Number of boundary faces = 8624

Processor 55
    Number of cells = 4312
    Number of faces shared with processor 46 = 10
    Number of faces shared with processor 47 = 121
    Number of faces shared with processor 54 = 29
    Number of faces shared with processor 63 = 119
    Number of processor patches = 4
    Number of processor faces = 279
    Number of boundary faces = 8661

Processor 56
    Number of cells = 4316
    Number of faces shared with processor 48 = 111
    Number of faces shared with processor 57 = 40
    Number of processor patches = 2
    Number of processor faces = 151
    Number of boundary faces = 8781

Processor 57
    Number of cells = 4316
    Number of faces shared with processor 49 = 113
    Number of faces shared with processor 56 = 40
    Number of faces shared with processor 58 = 38
    Number of processor patches = 3
    Number of processor faces = 191
    Number of boundary faces = 8743

Processor 58
    Number of cells = 4316
    Number of faces shared with processor 49 = 22
    Number of faces shared with processor 50 = 74
    Number of faces shared with processor 51 = 1
    Number of faces shared with processor 57 = 38
    Number of faces shared with processor 59 = 58
    Number of processor patches = 5
    Number of processor faces = 193
    Number of boundary faces = 8705

Processor 59
    Number of cells = 4316
    Number of faces shared with processor 44 = 8
    Number of faces shared with processor 51 = 75
    Number of faces shared with processor 52 = 25
    Number of faces shared with processor 58 = 58
    Number of faces shared with processor 60 = 25
    Number of processor patches = 5
    Number of processor faces = 191
    Number of boundary faces = 8707

Processor 60
    Number of cells = 4316
    Number of faces shared with processor 52 = 178
    Number of faces shared with processor 59 = 25
    Number of faces shared with processor 61 = 23
    Number of processor patches = 3
    Number of processor faces = 226
    Number of boundary faces = 8808

Processor 61
    Number of cells = 4316
    Number of faces shared with processor 52 = 13
    Number of faces shared with processor 53 = 146
    Number of faces shared with processor 60 = 23
    Number of faces shared with processor 62 = 27
    Number of processor patches = 4
    Number of processor faces = 209
    Number of boundary faces = 8769

Processor 62
    Number of cells = 4316
    Number of faces shared with processor 53 = 11
    Number of faces shared with processor 54 = 125
    Number of faces shared with processor 61 = 27
    Number of faces shared with processor 63 = 35
    Number of processor patches = 4
    Number of processor faces = 198
    Number of boundary faces = 8754

Processor 63
    Number of cells = 4316
    Number of faces shared with processor 54 = 3
    Number of faces shared with processor 55 = 119
    Number of faces shared with processor 62 = 35
    Number of processor patches = 3
    Number of processor faces = 157
    Number of boundary faces = 8785

Number of processor faces = 9464
Max number of cells = 4316 (0.0811594% above average 4312.5)
Max number of processor patches = 11 (125.641% above average 4.875)
Max number of faces between processors = 476 (60.9467% above average 295.75)

Time = 0

Processor 0: field transfer
Processor 1: field transfer
Processor 2: field transfer
Processor 3: field transfer
Processor 4: field transfer
Processor 5: field transfer
Processor 6: field transfer
Processor 7: field transfer
Processor 8: field transfer
Processor 9: field transfer
Processor 10: field transfer
Processor 11: field transfer
Processor 12: field transfer
Processor 13: field transfer
Processor 14: field transfer
Processor 15: field transfer
Processor 16: field transfer
Processor 17: field transfer
Processor 18: field transfer
Processor 19: field transfer
Processor 20: field transfer
Processor 21: field transfer
Processor 22: field transfer
Processor 23: field transfer
Processor 24: field transfer
Processor 25: field transfer
Processor 26: field transfer
Processor 27: field transfer
Processor 28: field transfer
Processor 29: field transfer
Processor 30: field transfer
Processor 31: field transfer
Processor 32: field transfer
Processor 33: field transfer
Processor 34: field transfer
Processor 35: field transfer
Processor 36: field transfer
Processor 37: field transfer
Processor 38: field transfer
Processor 39: field transfer
Processor 40: field transfer
Processor 41: field transfer
Processor 42: field transfer
Processor 43: field transfer
Processor 44: field transfer
Processor 45: field transfer
Processor 46: field transfer
Processor 47: field transfer
Processor 48: field transfer
Processor 49: field transfer
Processor 50: field transfer
Processor 51: field transfer
Processor 52: field transfer
Processor 53: field transfer
Processor 54: field transfer
Processor 55: field transfer
Processor 56: field transfer
Processor 57: field transfer
Processor 58: field transfer
Processor 59: field transfer
Processor 60: field transfer
Processor 61: field transfer
Processor 62: field transfer
Processor 63: field transfer

End

