/*---------------------------------------------------------------------------*\
  =========                 |
  \\      /  F ield         | OpenFOAM: The Open Source CFD Toolbox
   \\    /   O peration     | Website:  https://openfoam.org
    \\  /    A nd           | Version:  7
     \\/     M anipulation  |
\*---------------------------------------------------------------------------*/
Build  : 7-49b2b3b8b082
Exec   : rhoCentralFoam -parallel
Date   : May 09 2022
Time   : 14:20:08
Host   : "c433-042.stampede2.tacc.utexas.edu"
PID    : 206672
I/O    : uncollated
Case   : /work2/07674/bradenp/stampede2/diamond-airfoil/simulations/unorganized/test_new_mesh
nProcs : 64
Slaves : 
63
(
"c433-042.stampede2.tacc.utexas.edu.206673"
"c433-042.stampede2.tacc.utexas.edu.206674"
"c433-042.stampede2.tacc.utexas.edu.206675"
"c433-042.stampede2.tacc.utexas.edu.206676"
"c433-042.stampede2.tacc.utexas.edu.206677"
"c433-042.stampede2.tacc.utexas.edu.206678"
"c433-042.stampede2.tacc.utexas.edu.206679"
"c433-042.stampede2.tacc.utexas.edu.206680"
"c433-042.stampede2.tacc.utexas.edu.206681"
"c433-042.stampede2.tacc.utexas.edu.206682"
"c433-042.stampede2.tacc.utexas.edu.206683"
"c433-042.stampede2.tacc.utexas.edu.206684"
"c433-042.stampede2.tacc.utexas.edu.206685"
"c433-042.stampede2.tacc.utexas.edu.206686"
"c433-042.stampede2.tacc.utexas.edu.206687"
"c433-042.stampede2.tacc.utexas.edu.206688"
"c433-042.stampede2.tacc.utexas.edu.206689"
"c433-042.stampede2.tacc.utexas.edu.206690"
"c433-042.stampede2.tacc.utexas.edu.206691"
"c433-042.stampede2.tacc.utexas.edu.206692"
"c433-042.stampede2.tacc.utexas.edu.206693"
"c433-042.stampede2.tacc.utexas.edu.206694"
"c433-042.stampede2.tacc.utexas.edu.206695"
"c433-042.stampede2.tacc.utexas.edu.206696"
"c433-042.stampede2.tacc.utexas.edu.206697"
"c433-042.stampede2.tacc.utexas.edu.206698"
"c433-042.stampede2.tacc.utexas.edu.206699"
"c433-042.stampede2.tacc.utexas.edu.206700"
"c433-042.stampede2.tacc.utexas.edu.206701"
"c433-042.stampede2.tacc.utexas.edu.206702"
"c433-042.stampede2.tacc.utexas.edu.206703"
"c433-042.stampede2.tacc.utexas.edu.206704"
"c433-042.stampede2.tacc.utexas.edu.206705"
"c433-042.stampede2.tacc.utexas.edu.206706"
"c433-042.stampede2.tacc.utexas.edu.206707"
"c433-042.stampede2.tacc.utexas.edu.206708"
"c433-042.stampede2.tacc.utexas.edu.206709"
"c433-042.stampede2.tacc.utexas.edu.206710"
"c433-042.stampede2.tacc.utexas.edu.206711"
"c433-042.stampede2.tacc.utexas.edu.206712"
"c433-042.stampede2.tacc.utexas.edu.206713"
"c433-042.stampede2.tacc.utexas.edu.206714"
"c433-042.stampede2.tacc.utexas.edu.206715"
"c433-042.stampede2.tacc.utexas.edu.206716"
"c433-042.stampede2.tacc.utexas.edu.206717"
"c433-042.stampede2.tacc.utexas.edu.206718"
"c433-042.stampede2.tacc.utexas.edu.206719"
"c433-042.stampede2.tacc.utexas.edu.206720"
"c433-042.stampede2.tacc.utexas.edu.206721"
"c433-042.stampede2.tacc.utexas.edu.206722"
"c433-042.stampede2.tacc.utexas.edu.206723"
"c433-042.stampede2.tacc.utexas.edu.206724"
"c433-042.stampede2.tacc.utexas.edu.206725"
"c433-042.stampede2.tacc.utexas.edu.206726"
"c433-042.stampede2.tacc.utexas.edu.206727"
"c433-042.stampede2.tacc.utexas.edu.206728"
"c433-042.stampede2.tacc.utexas.edu.206729"
"c433-042.stampede2.tacc.utexas.edu.206730"
"c433-042.stampede2.tacc.utexas.edu.206731"
"c433-042.stampede2.tacc.utexas.edu.206732"
"c433-042.stampede2.tacc.utexas.edu.206733"
"c433-042.stampede2.tacc.utexas.edu.206734"
"c433-042.stampede2.tacc.utexas.edu.206735"
)

Pstream initialized with:
    floatTransfer      : 0
    nProcsSimpleSum    : 0
    commsType          : nonBlocking
    polling iterations : 0
sigFpe : Enabling floating point exception trapping (FOAM_SIGFPE).
fileModificationChecking : Monitoring run-time modified files using timeStampMaster (fileModificationSkew 10)
allowSystemOperations : Allowing user-supplied system call operations

// * * * * * * * * * * * * * * * * * * * * * * * * * * * * * * * * * * * * * //
Create time

Create mesh for time = 0

Reading thermophysical properties

Selecting thermodynamics package 
{
    type            hePsiThermo;
    mixture         pureMixture;
    transport       const;
    thermo          hConst;
    equationOfState perfectGas;
    specie          specie;
    energy          sensibleInternalEnergy;
}

Reading field U

Creating turbulence model

Selecting turbulence model type laminar
Selecting laminar stress model Stokes
fluxScheme: Kurganov

Starting time loop

deltaT = 0.00239808
Mean and max Courant Numbers = 0.585578 6.62742
Time = 0.00239808

diagonal:  Solving for rho, Initial residual = 0, Final residual = 0, No Iterations 0
diagonal:  Solving for rhoUx, Initial residual = 0, Final residual = 0, No Iterations 0
diagonal:  Solving for rhoUy, Initial residual = 0, Final residual = 0, No Iterations 0
diagonal:  Solving for rhoE, Initial residual = 0, Final residual = 0, No Iterations 0
ExecutionTime = 0.47 s  ClockTime = 1 s

deltaT = 7.23634e-05
Mean and max Courant Numbers = 0.0176704 0.215206
Time = 0.00247044

diagonal:  Solving for rho, Initial residual = 0, Final residual = 0, No Iterations 0
diagonal:  Solving for rhoUx, Initial residual = 0, Final residual = 0, No Iterations 0
diagonal:  Solving for rhoUy, Initial residual = 0, Final residual = 0, No Iterations 0
diagonal:  Solving for rhoE, Initial residual = 0, Final residual = 0, No Iterations 0
ExecutionTime = 0.51 s  ClockTime = 1 s

deltaT = 6.72462e-05
Mean and max Courant Numbers = 0.0164207 0.185843
Time = 0.00253769

diagonal:  Solving for rho, Initial residual = 0, Final residual = 0, No Iterations 0
diagonal:  Solving for rhoUx, Initial residual = 0, Final residual = 0, No Iterations 0
diagonal:  Solving for rhoUy, Initial residual = 0, Final residual = 0, No Iterations 0
diagonal:  Solving for rhoE, Initial residual = 0, Final residual = 0, No Iterations 0
ExecutionTime = 0.56 s  ClockTime = 1 s

deltaT = 7.23638e-05
Mean and max Courant Numbers = 0.0176703 0.19997
Time = 0.00261005

diagonal:  Solving for rho, Initial residual = 0, Final residual = 0, No Iterations 0
diagonal:  Solving for rhoUx, Initial residual = 0, Final residual = 0, No Iterations 0
diagonal:  Solving for rhoUy, Initial residual = 0, Final residual = 0, No Iterations 0
diagonal:  Solving for rhoE, Initial residual = 0, Final residual = 0, No Iterations 0
ExecutionTime = 0.61 s  ClockTime = 1 s

deltaT = 7.23743e-05
Mean and max Courant Numbers = 0.0176728 0.200007
Time = 0.00268243

diagonal:  Solving for rho, Initial residual = 0, Final residual = 0, No Iterations 0
diagonal:  Solving for rhoUx, Initial residual = 0, Final residual = 0, No Iterations 0
diagonal:  Solving for rhoUy, Initial residual = 0, Final residual = 0, No Iterations 0
diagonal:  Solving for rhoE, Initial residual = 0, Final residual = 0, No Iterations 0
ExecutionTime = 0.65 s  ClockTime = 1 s

deltaT = 7.2369e-05
[20] #0  Foam::error::printStack(Foam::Ostream&) at ??:?
[20] #1  Foam::sigFpe::sigHandler(int) at ??:?
[20] #2  ? in "/lib64/libpthread.so.0"
[20] #3  Foam::sqrt(Foam::Field<double>&, Foam::UList<double> const&) at ??:?
[20] #4  Foam::tmp<Foam::GeometricField<double, Foam::volMesh> > Foam::sqrt<Foam::fvPatchField, Foam::volMesh>(Foam::tmp<Foam::GeometricField<double, Foam::volMesh> > const&) at ??:?
[20] #5  ? at ??:?
[20] #6  __libc_start_main in "/lib64/libc.so.6"
[20] #7  ? at ??:?

===================================================================================
=   BAD TERMINATION OF ONE OF YOUR APPLICATION PROCESSES
=   PID 206692 RUNNING AT c433-042
=   EXIT CODE: 8
=   CLEANING UP REMAINING PROCESSES
=   YOU CAN IGNORE THE BELOW CLEANUP MESSAGES
===================================================================================
   Intel(R) MPI Library troubleshooting guide:
      https://software.intel.com/node/561764
===================================================================================
