/*---------------------------------------------------------------------------*\
  =========                 |
  \\      /  F ield         | OpenFOAM: The Open Source CFD Toolbox
   \\    /   O peration     | Website:  https://openfoam.org
    \\  /    A nd           | Version:  7
     \\/     M anipulation  |
\*---------------------------------------------------------------------------*/
Build  : 7-49b2b3b8b082
Exec   : decomposePar
Date   : May 09 2022
Time   : 19:36:25
Host   : "c401-123.stampede2.tacc.utexas.edu"
PID    : 201313
I/O    : uncollated
Case   : /work2/07674/bradenp/stampede2/diamond-airfoil/simulations/unorganized/test_new_mesh
nProcs : 1
sigFpe : Enabling floating point exception trapping (FOAM_SIGFPE).
fileModificationChecking : Monitoring run-time modified files using timeStampMaster (fileModificationSkew 10)
allowSystemOperations : Allowing user-supplied system call operations

// * * * * * * * * * * * * * * * * * * * * * * * * * * * * * * * * * * * * * //
Create time



Decomposing mesh region0

Create mesh

Calculating distribution of cells
 Foam::decompositionMethod::New 
{
    numberOfSubdomains 64;
    method          hierarchical;
    simpleCoeffs
    {
        n               ( 8 8 1 );
        delta           0.001;
    }
    hierarchicalCoeffs
    {
        n               ( 8 8 1 );
        delta           0.001;
        order           xyz;
    }
}

Selecting decompositionMethod hierarchical

Finished decomposition in 0.07 s

Calculating original mesh data

Distributing cells to processors

Distributing faces to processors

Distributing points to processors

Constructing processor meshes

Processor 0
    Number of cells = 937
    Number of faces shared with processor 1 = 13
    Number of faces shared with processor 8 = 76
    Number of processor patches = 2
    Number of processor faces = 89
    Number of boundary faces = 1961

Processor 1
    Number of cells = 937
    Number of faces shared with processor 0 = 13
    Number of faces shared with processor 2 = 12
    Number of faces shared with processor 9 = 77
    Number of faces shared with processor 10 = 2
    Number of processor patches = 4
    Number of processor faces = 104
    Number of boundary faces = 1950

Processor 2
    Number of cells = 937
    Number of faces shared with processor 1 = 12
    Number of faces shared with processor 3 = 10
    Number of faces shared with processor 10 = 80
    Number of faces shared with processor 11 = 4
    Number of processor patches = 4
    Number of processor faces = 106
    Number of boundary faces = 1952

Processor 3
    Number of cells = 937
    Number of faces shared with processor 2 = 10
    Number of faces shared with processor 4 = 11
    Number of faces shared with processor 11 = 91
    Number of processor patches = 3
    Number of processor faces = 112
    Number of boundary faces = 1964

Processor 4
    Number of cells = 937
    Number of faces shared with processor 3 = 11
    Number of faces shared with processor 5 = 12
    Number of faces shared with processor 11 = 4
    Number of faces shared with processor 12 = 61
    Number of faces shared with processor 13 = 4
    Number of processor patches = 5
    Number of processor faces = 92
    Number of boundary faces = 1934

Processor 5
    Number of cells = 937
    Number of faces shared with processor 4 = 12
    Number of faces shared with processor 6 = 13
    Number of faces shared with processor 13 = 75
    Number of faces shared with processor 14 = 2
    Number of processor patches = 4
    Number of processor faces = 102
    Number of boundary faces = 1946

Processor 6
    Number of cells = 937
    Number of faces shared with processor 5 = 13
    Number of faces shared with processor 7 = 14
    Number of faces shared with processor 14 = 75
    Number of processor patches = 3
    Number of processor faces = 102
    Number of boundary faces = 1948

Processor 7
    Number of cells = 937
    Number of faces shared with processor 6 = 14
    Number of faces shared with processor 15 = 76
    Number of processor patches = 2
    Number of processor faces = 90
    Number of boundary faces = 1962

Processor 8
    Number of cells = 937
    Number of faces shared with processor 0 = 76
    Number of faces shared with processor 9 = 12
    Number of faces shared with processor 16 = 76
    Number of faces shared with processor 17 = 1
    Number of processor patches = 4
    Number of processor faces = 165
    Number of boundary faces = 1887

Processor 9
    Number of cells = 937
    Number of faces shared with processor 1 = 77
    Number of faces shared with processor 8 = 12
    Number of faces shared with processor 10 = 8
    Number of faces shared with processor 17 = 78
    Number of faces shared with processor 18 = 5
    Number of processor patches = 5
    Number of processor faces = 180
    Number of boundary faces = 1874

Processor 10
    Number of cells = 937
    Number of faces shared with processor 1 = 2
    Number of faces shared with processor 2 = 80
    Number of faces shared with processor 9 = 8
    Number of faces shared with processor 11 = 5
    Number of faces shared with processor 18 = 86
    Number of faces shared with processor 19 = 8
    Number of faces shared with processor 27 = 3
    Number of processor patches = 7
    Number of processor faces = 192
    Number of boundary faces = 1874

Processor 11
    Number of cells = 937
    Number of faces shared with processor 2 = 4
    Number of faces shared with processor 3 = 91
    Number of faces shared with processor 4 = 4
    Number of faces shared with processor 10 = 5
    Number of faces shared with processor 12 = 8
    Number of faces shared with processor 19 = 94
    Number of processor patches = 6
    Number of processor faces = 206
    Number of boundary faces = 1874

Processor 12
    Number of cells = 937
    Number of faces shared with processor 4 = 61
    Number of faces shared with processor 11 = 8
    Number of faces shared with processor 13 = 7
    Number of faces shared with processor 19 = 8
    Number of faces shared with processor 20 = 63
    Number of faces shared with processor 21 = 8
    Number of faces shared with processor 29 = 3
    Number of processor patches = 7
    Number of processor faces = 158
    Number of boundary faces = 1874

Processor 13
    Number of cells = 937
    Number of faces shared with processor 4 = 4
    Number of faces shared with processor 5 = 75
    Number of faces shared with processor 12 = 7
    Number of faces shared with processor 14 = 11
    Number of faces shared with processor 21 = 78
    Number of faces shared with processor 22 = 3
    Number of processor patches = 6
    Number of processor faces = 178
    Number of boundary faces = 1874

Processor 14
    Number of cells = 937
    Number of faces shared with processor 5 = 2
    Number of faces shared with processor 6 = 75
    Number of faces shared with processor 13 = 11
    Number of faces shared with processor 15 = 12
    Number of faces shared with processor 22 = 75
    Number of faces shared with processor 23 = 1
    Number of processor patches = 6
    Number of processor faces = 176
    Number of boundary faces = 1874

Processor 15
    Number of cells = 937
    Number of faces shared with processor 7 = 76
    Number of faces shared with processor 14 = 12
    Number of faces shared with processor 23 = 76
    Number of processor patches = 3
    Number of processor faces = 164
    Number of boundary faces = 1886

Processor 16
    Number of cells = 937
    Number of faces shared with processor 8 = 76
    Number of faces shared with processor 17 = 11
    Number of faces shared with processor 24 = 76
    Number of faces shared with processor 25 = 1
    Number of processor patches = 4
    Number of processor faces = 164
    Number of boundary faces = 1886

Processor 17
    Number of cells = 937
    Number of faces shared with processor 8 = 1
    Number of faces shared with processor 9 = 78
    Number of faces shared with processor 16 = 11
    Number of faces shared with processor 18 = 2
    Number of faces shared with processor 25 = 83
    Number of faces shared with processor 26 = 11
    Number of faces shared with processor 34 = 2
    Number of processor patches = 7
    Number of processor faces = 188
    Number of boundary faces = 1874

Processor 18
    Number of cells = 937
    Number of faces shared with processor 9 = 5
    Number of faces shared with processor 10 = 86
    Number of faces shared with processor 17 = 2
    Number of faces shared with processor 26 = 86
    Number of faces shared with processor 27 = 3
    Number of faces shared with processor 35 = 17
    Number of processor patches = 6
    Number of processor faces = 199
    Number of boundary faces = 1887

Processor 19
    Number of cells = 937
    Number of faces shared with processor 10 = 8
    Number of faces shared with processor 11 = 94
    Number of faces shared with processor 12 = 8
    Number of faces shared with processor 20 = 3
    Number of faces shared with processor 27 = 97
    Number of processor patches = 5
    Number of processor faces = 210
    Number of boundary faces = 1874

Processor 20
    Number of cells = 937
    Number of faces shared with processor 12 = 63
    Number of faces shared with processor 19 = 3
    Number of faces shared with processor 27 = 11
    Number of faces shared with processor 28 = 44
    Number of faces shared with processor 29 = 8
    Number of faces shared with processor 37 = 8
    Number of processor patches = 6
    Number of processor faces = 137
    Number of boundary faces = 1895

Processor 21
    Number of cells = 937
    Number of faces shared with processor 12 = 8
    Number of faces shared with processor 13 = 78
    Number of faces shared with processor 22 = 8
    Number of faces shared with processor 29 = 89
    Number of faces shared with processor 30 = 10
    Number of faces shared with processor 38 = 1
    Number of processor patches = 6
    Number of processor faces = 194
    Number of boundary faces = 1874

Processor 22
    Number of cells = 937
    Number of faces shared with processor 13 = 3
    Number of faces shared with processor 14 = 75
    Number of faces shared with processor 21 = 8
    Number of faces shared with processor 23 = 12
    Number of faces shared with processor 30 = 77
    Number of faces shared with processor 31 = 1
    Number of processor patches = 6
    Number of processor faces = 176
    Number of boundary faces = 1874

Processor 23
    Number of cells = 937
    Number of faces shared with processor 14 = 1
    Number of faces shared with processor 15 = 76
    Number of faces shared with processor 22 = 12
    Number of faces shared with processor 31 = 76
    Number of processor patches = 4
    Number of processor faces = 165
    Number of boundary faces = 1887

Processor 24
    Number of cells = 937
    Number of faces shared with processor 16 = 76
    Number of faces shared with processor 25 = 10
    Number of faces shared with processor 32 = 76
    Number of faces shared with processor 33 = 3
    Number of processor patches = 4
    Number of processor faces = 165
    Number of boundary faces = 1887

Processor 25
    Number of cells = 937
    Number of faces shared with processor 16 = 1
    Number of faces shared with processor 17 = 83
    Number of faces shared with processor 24 = 10
    Number of faces shared with processor 33 = 64
    Number of faces shared with processor 34 = 11
    Number of faces shared with processor 42 = 2
    Number of processor patches = 6
    Number of processor faces = 171
    Number of boundary faces = 1929

Processor 26
    Number of cells = 937
    Number of faces shared with processor 17 = 11
    Number of faces shared with processor 18 = 86
    Number of faces shared with processor 34 = 63
    Number of faces shared with processor 43 = 8
    Number of processor patches = 4
    Number of processor faces = 168
    Number of boundary faces = 1928

Processor 27
    Number of cells = 937
    Number of faces shared with processor 10 = 3
    Number of faces shared with processor 18 = 3
    Number of faces shared with processor 19 = 97
    Number of faces shared with processor 20 = 11
    Number of faces shared with processor 28 = 3
    Number of faces shared with processor 35 = 105
    Number of processor patches = 6
    Number of processor faces = 222
    Number of boundary faces = 1874

Processor 28
    Number of cells = 937
    Number of faces shared with processor 20 = 44
    Number of faces shared with processor 27 = 3
    Number of faces shared with processor 35 = 6
    Number of faces shared with processor 36 = 105
    Number of faces shared with processor 45 = 17
    Number of processor patches = 5
    Number of processor faces = 175
    Number of boundary faces = 2003

Processor 29
    Number of cells = 937
    Number of faces shared with processor 12 = 3
    Number of faces shared with processor 20 = 8
    Number of faces shared with processor 21 = 89
    Number of faces shared with processor 37 = 63
    Number of faces shared with processor 38 = 12
    Number of faces shared with processor 46 = 2
    Number of processor patches = 6
    Number of processor faces = 177
    Number of boundary faces = 1957

Processor 30
    Number of cells = 937
    Number of faces shared with processor 21 = 10
    Number of faces shared with processor 22 = 77
    Number of faces shared with processor 31 = 11
    Number of faces shared with processor 38 = 66
    Number of faces shared with processor 39 = 2
    Number of processor patches = 5
    Number of processor faces = 166
    Number of boundary faces = 1918

Processor 31
    Number of cells = 937
    Number of faces shared with processor 22 = 1
    Number of faces shared with processor 23 = 76
    Number of faces shared with processor 30 = 11
    Number of faces shared with processor 39 = 76
    Number of processor patches = 4
    Number of processor faces = 164
    Number of boundary faces = 1886

Processor 32
    Number of cells = 937
    Number of faces shared with processor 24 = 76
    Number of faces shared with processor 33 = 11
    Number of faces shared with processor 40 = 76
    Number of faces shared with processor 41 = 1
    Number of processor patches = 4
    Number of processor faces = 164
    Number of boundary faces = 1886

Processor 33
    Number of cells = 937
    Number of faces shared with processor 24 = 3
    Number of faces shared with processor 25 = 64
    Number of faces shared with processor 32 = 11
    Number of faces shared with processor 41 = 77
    Number of faces shared with processor 42 = 10
    Number of processor patches = 5
    Number of processor faces = 165
    Number of boundary faces = 1919

Processor 34
    Number of cells = 937
    Number of faces shared with processor 17 = 2
    Number of faces shared with processor 25 = 11
    Number of faces shared with processor 26 = 63
    Number of faces shared with processor 42 = 90
    Number of faces shared with processor 43 = 8
    Number of faces shared with processor 51 = 3
    Number of processor patches = 6
    Number of processor faces = 177
    Number of boundary faces = 1957

Processor 35
    Number of cells = 937
    Number of faces shared with processor 18 = 17
    Number of faces shared with processor 27 = 105
    Number of faces shared with processor 28 = 6
    Number of faces shared with processor 36 = 3
    Number of faces shared with processor 43 = 43
    Number of processor patches = 5
    Number of processor faces = 174
    Number of boundary faces = 2002

Processor 36
    Number of cells = 937
    Number of faces shared with processor 28 = 105
    Number of faces shared with processor 35 = 3
    Number of faces shared with processor 43 = 11
    Number of faces shared with processor 44 = 97
    Number of faces shared with processor 45 = 3
    Number of faces shared with processor 53 = 3
    Number of processor patches = 6
    Number of processor faces = 222
    Number of boundary faces = 1874

Processor 37
    Number of cells = 937
    Number of faces shared with processor 20 = 8
    Number of faces shared with processor 29 = 63
    Number of faces shared with processor 45 = 86
    Number of faces shared with processor 46 = 11
    Number of processor patches = 4
    Number of processor faces = 168
    Number of boundary faces = 1928

Processor 38
    Number of cells = 937
    Number of faces shared with processor 21 = 1
    Number of faces shared with processor 29 = 12
    Number of faces shared with processor 30 = 66
    Number of faces shared with processor 39 = 11
    Number of faces shared with processor 46 = 81
    Number of faces shared with processor 47 = 1
    Number of processor patches = 6
    Number of processor faces = 172
    Number of boundary faces = 1930

Processor 39
    Number of cells = 937
    Number of faces shared with processor 30 = 2
    Number of faces shared with processor 31 = 76
    Number of faces shared with processor 38 = 11
    Number of faces shared with processor 47 = 76
    Number of processor patches = 4
    Number of processor faces = 165
    Number of boundary faces = 1887

Processor 40
    Number of cells = 937
    Number of faces shared with processor 32 = 76
    Number of faces shared with processor 41 = 12
    Number of faces shared with processor 48 = 76
    Number of faces shared with processor 49 = 1
    Number of processor patches = 4
    Number of processor faces = 165
    Number of boundary faces = 1887

Processor 41
    Number of cells = 937
    Number of faces shared with processor 32 = 1
    Number of faces shared with processor 33 = 77
    Number of faces shared with processor 40 = 12
    Number of faces shared with processor 42 = 8
    Number of faces shared with processor 49 = 75
    Number of faces shared with processor 50 = 3
    Number of processor patches = 6
    Number of processor faces = 176
    Number of boundary faces = 1874

Processor 42
    Number of cells = 937
    Number of faces shared with processor 25 = 2
    Number of faces shared with processor 33 = 10
    Number of faces shared with processor 34 = 90
    Number of faces shared with processor 41 = 8
    Number of faces shared with processor 50 = 78
    Number of faces shared with processor 51 = 8
    Number of processor patches = 6
    Number of processor faces = 196
    Number of boundary faces = 1874

Processor 43
    Number of cells = 937
    Number of faces shared with processor 26 = 8
    Number of faces shared with processor 34 = 8
    Number of faces shared with processor 35 = 43
    Number of faces shared with processor 36 = 11
    Number of faces shared with processor 44 = 3
    Number of faces shared with processor 51 = 63
    Number of processor patches = 6
    Number of processor faces = 136
    Number of boundary faces = 1896

Processor 44
    Number of cells = 937
    Number of faces shared with processor 36 = 97
    Number of faces shared with processor 43 = 3
    Number of faces shared with processor 51 = 8
    Number of faces shared with processor 52 = 94
    Number of faces shared with processor 53 = 8
    Number of processor patches = 5
    Number of processor faces = 210
    Number of boundary faces = 1874

Processor 45
    Number of cells = 937
    Number of faces shared with processor 28 = 17
    Number of faces shared with processor 36 = 3
    Number of faces shared with processor 37 = 86
    Number of faces shared with processor 46 = 2
    Number of faces shared with processor 53 = 86
    Number of faces shared with processor 54 = 5
    Number of processor patches = 6
    Number of processor faces = 199
    Number of boundary faces = 1887

Processor 46
    Number of cells = 937
    Number of faces shared with processor 29 = 2
    Number of faces shared with processor 37 = 11
    Number of faces shared with processor 38 = 81
    Number of faces shared with processor 45 = 2
    Number of faces shared with processor 47 = 11
    Number of faces shared with processor 54 = 78
    Number of faces shared with processor 55 = 1
    Number of processor patches = 7
    Number of processor faces = 186
    Number of boundary faces = 1874

Processor 47
    Number of cells = 937
    Number of faces shared with processor 38 = 1
    Number of faces shared with processor 39 = 76
    Number of faces shared with processor 46 = 11
    Number of faces shared with processor 55 = 76
    Number of processor patches = 4
    Number of processor faces = 164
    Number of boundary faces = 1886

Processor 48
    Number of cells = 937
    Number of faces shared with processor 40 = 76
    Number of faces shared with processor 49 = 12
    Number of faces shared with processor 56 = 76
    Number of processor patches = 3
    Number of processor faces = 164
    Number of boundary faces = 1886

Processor 49
    Number of cells = 937
    Number of faces shared with processor 40 = 1
    Number of faces shared with processor 41 = 75
    Number of faces shared with processor 48 = 12
    Number of faces shared with processor 50 = 11
    Number of faces shared with processor 57 = 75
    Number of faces shared with processor 58 = 2
    Number of processor patches = 6
    Number of processor faces = 176
    Number of boundary faces = 1874

Processor 50
    Number of cells = 937
    Number of faces shared with processor 41 = 3
    Number of faces shared with processor 42 = 78
    Number of faces shared with processor 49 = 11
    Number of faces shared with processor 51 = 7
    Number of faces shared with processor 58 = 75
    Number of faces shared with processor 59 = 4
    Number of processor patches = 6
    Number of processor faces = 178
    Number of boundary faces = 1874

Processor 51
    Number of cells = 937
    Number of faces shared with processor 34 = 3
    Number of faces shared with processor 42 = 8
    Number of faces shared with processor 43 = 63
    Number of faces shared with processor 44 = 8
    Number of faces shared with processor 50 = 7
    Number of faces shared with processor 52 = 8
    Number of faces shared with processor 59 = 61
    Number of processor patches = 7
    Number of processor faces = 158
    Number of boundary faces = 1874

Processor 52
    Number of cells = 937
    Number of faces shared with processor 44 = 94
    Number of faces shared with processor 51 = 8
    Number of faces shared with processor 53 = 5
    Number of faces shared with processor 59 = 4
    Number of faces shared with processor 60 = 91
    Number of faces shared with processor 61 = 4
    Number of processor patches = 6
    Number of processor faces = 206
    Number of boundary faces = 1874

Processor 53
    Number of cells = 937
    Number of faces shared with processor 36 = 3
    Number of faces shared with processor 44 = 8
    Number of faces shared with processor 45 = 86
    Number of faces shared with processor 52 = 5
    Number of faces shared with processor 54 = 8
    Number of faces shared with processor 61 = 80
    Number of faces shared with processor 62 = 2
    Number of processor patches = 7
    Number of processor faces = 192
    Number of boundary faces = 1874

Processor 54
    Number of cells = 937
    Number of faces shared with processor 45 = 5
    Number of faces shared with processor 46 = 78
    Number of faces shared with processor 53 = 8
    Number of faces shared with processor 55 = 12
    Number of faces shared with processor 62 = 77
    Number of processor patches = 5
    Number of processor faces = 180
    Number of boundary faces = 1874

Processor 55
    Number of cells = 937
    Number of faces shared with processor 46 = 1
    Number of faces shared with processor 47 = 76
    Number of faces shared with processor 54 = 12
    Number of faces shared with processor 63 = 76
    Number of processor patches = 4
    Number of processor faces = 165
    Number of boundary faces = 1887

Processor 56
    Number of cells = 941
    Number of faces shared with processor 48 = 76
    Number of faces shared with processor 57 = 14
    Number of processor patches = 2
    Number of processor faces = 90
    Number of boundary faces = 1970

Processor 57
    Number of cells = 941
    Number of faces shared with processor 49 = 75
    Number of faces shared with processor 56 = 14
    Number of faces shared with processor 58 = 13
    Number of processor patches = 3
    Number of processor faces = 102
    Number of boundary faces = 1956

Processor 58
    Number of cells = 941
    Number of faces shared with processor 49 = 2
    Number of faces shared with processor 50 = 75
    Number of faces shared with processor 57 = 13
    Number of faces shared with processor 59 = 12
    Number of processor patches = 4
    Number of processor faces = 102
    Number of boundary faces = 1954

Processor 59
    Number of cells = 941
    Number of faces shared with processor 50 = 4
    Number of faces shared with processor 51 = 61
    Number of faces shared with processor 52 = 4
    Number of faces shared with processor 58 = 12
    Number of faces shared with processor 60 = 11
    Number of processor patches = 5
    Number of processor faces = 92
    Number of boundary faces = 1942

Processor 60
    Number of cells = 941
    Number of faces shared with processor 52 = 91
    Number of faces shared with processor 59 = 11
    Number of faces shared with processor 61 = 10
    Number of processor patches = 3
    Number of processor faces = 112
    Number of boundary faces = 1972

Processor 61
    Number of cells = 941
    Number of faces shared with processor 52 = 4
    Number of faces shared with processor 53 = 80
    Number of faces shared with processor 60 = 10
    Number of faces shared with processor 62 = 12
    Number of processor patches = 4
    Number of processor faces = 106
    Number of boundary faces = 1960

Processor 62
    Number of cells = 941
    Number of faces shared with processor 53 = 2
    Number of faces shared with processor 54 = 77
    Number of faces shared with processor 61 = 12
    Number of faces shared with processor 63 = 13
    Number of processor patches = 4
    Number of processor faces = 104
    Number of boundary faces = 1958

Processor 63
    Number of cells = 941
    Number of faces shared with processor 55 = 76
    Number of faces shared with processor 62 = 13
    Number of processor patches = 2
    Number of processor faces = 89
    Number of boundary faces = 1969

Number of processor faces = 5056
Max number of cells = 941 (0.373333% above average 937.5)
Max number of processor patches = 7 (44.5161% above average 4.84375)
Max number of faces between processors = 222 (40.5063% above average 158)

Time = 0

Processor 0: field transfer
Processor 1: field transfer
Processor 2: field transfer
Processor 3: field transfer
Processor 4: field transfer
Processor 5: field transfer
Processor 6: field transfer
Processor 7: field transfer
Processor 8: field transfer
Processor 9: field transfer
Processor 10: field transfer
Processor 11: field transfer
Processor 12: field transfer
Processor 13: field transfer
Processor 14: field transfer
Processor 15: field transfer
Processor 16: field transfer
Processor 17: field transfer
Processor 18: field transfer
Processor 19: field transfer
Processor 20: field transfer
Processor 21: field transfer
Processor 22: field transfer
Processor 23: field transfer
Processor 24: field transfer
Processor 25: field transfer
Processor 26: field transfer
Processor 27: field transfer
Processor 28: field transfer
Processor 29: field transfer
Processor 30: field transfer
Processor 31: field transfer
Processor 32: field transfer
Processor 33: field transfer
Processor 34: field transfer
Processor 35: field transfer
Processor 36: field transfer
Processor 37: field transfer
Processor 38: field transfer
Processor 39: field transfer
Processor 40: field transfer
Processor 41: field transfer
Processor 42: field transfer
Processor 43: field transfer
Processor 44: field transfer
Processor 45: field transfer
Processor 46: field transfer
Processor 47: field transfer
Processor 48: field transfer
Processor 49: field transfer
Processor 50: field transfer
Processor 51: field transfer
Processor 52: field transfer
Processor 53: field transfer
Processor 54: field transfer
Processor 55: field transfer
Processor 56: field transfer
Processor 57: field transfer
Processor 58: field transfer
Processor 59: field transfer
Processor 60: field transfer
Processor 61: field transfer
Processor 62: field transfer
Processor 63: field transfer

End

