/*---------------------------------------------------------------------------*\
  =========                 |
  \\      /  F ield         | OpenFOAM: The Open Source CFD Toolbox
   \\    /   O peration     | Website:  https://openfoam.org
    \\  /    A nd           | Version:  7
     \\/     M anipulation  |
\*---------------------------------------------------------------------------*/
Build  : 7-49b2b3b8b082
Exec   : rhoCentralFoam
Date   : Apr 27 2022
Time   : 14:07:34
Host   : "c401-011.stampede2.tacc.utexas.edu"
PID    : 89928
I/O    : uncollated
Case   : /work2/07705/jmj3957/stampede2/diamond-airfoil/simulations/meshing/alpha20/mesh0
nProcs : 1
sigFpe : Enabling floating point exception trapping (FOAM_SIGFPE).
fileModificationChecking : Monitoring run-time modified files using timeStampMaster (fileModificationSkew 10)
allowSystemOperations : Allowing user-supplied system call operations

// * * * * * * * * * * * * * * * * * * * * * * * * * * * * * * * * * * * * * //
Create time

Create mesh for time = 0

Reading thermophysical properties

Selecting thermodynamics package 
{
    type            hePsiThermo;
    mixture         pureMixture;
    transport       const;
    thermo          hConst;
    equationOfState perfectGas;
    specie          specie;
    energy          sensibleInternalEnergy;
}

Reading field U

Creating turbulence model

Selecting turbulence model type laminar
Selecting laminar stress model Stokes
fluxScheme: Kurganov

Starting time loop

deltaT = 0.00239808
Mean and max Courant Numbers = 0.111398 0.303584
Time = 0.00239808

diagonal:  Solving for rho, Initial residual = 0, Final residual = 0, No Iterations 0
diagonal:  Solving for rhoUx, Initial residual = 0, Final residual = 0, No Iterations 0
diagonal:  Solving for rhoUy, Initial residual = 0, Final residual = 0, No Iterations 0
diagonal:  Solving for rhoE, Initial residual = 0, Final residual = 0, No Iterations 0
ExecutionTime = 0.57 s  ClockTime = 0 s

deltaT = 0.00157848
Mean and max Courant Numbers = 0.0733332 0.206212
Time = 0.00397657

diagonal:  Solving for rho, Initial residual = 0, Final residual = 0, No Iterations 0
diagonal:  Solving for rhoUx, Initial residual = 0, Final residual = 0, No Iterations 0
diagonal:  Solving for rhoUy, Initial residual = 0, Final residual = 0, No Iterations 0
diagonal:  Solving for rhoE, Initial residual = 0, Final residual = 0, No Iterations 0
ExecutionTime = 0.65 s  ClockTime = 1 s

deltaT = 0.00152999
Mean and max Courant Numbers = 0.0710845 0.203691
Time = 0.00550656

diagonal:  Solving for rho, Initial residual = 0, Final residual = 0, No Iterations 0
diagonal:  Solving for rhoUx, Initial residual = 0, Final residual = 0, No Iterations 0
diagonal:  Solving for rhoUy, Initial residual = 0, Final residual = 0, No Iterations 0
diagonal:  Solving for rhoE, Initial residual = 0, Final residual = 0, No Iterations 0
ExecutionTime = 0.73 s  ClockTime = 1 s

deltaT = 0.00150226
Mean and max Courant Numbers = 0.0697978 0.202857
Time = 0.00700881

diagonal:  Solving for rho, Initial residual = 0, Final residual = 0, No Iterations 0
diagonal:  Solving for rhoUx, Initial residual = 0, Final residual = 0, No Iterations 0
diagonal:  Solving for rhoUy, Initial residual = 0, Final residual = 0, No Iterations 0
diagonal:  Solving for rhoE, Initial residual = 0, Final residual = 0, No Iterations 0
ExecutionTime = 0.81 s  ClockTime = 1 s

deltaT = 0.00147987
Mean and max Courant Numbers = 0.0687572 0.201042
Time = 0.00848868

diagonal:  Solving for rho, Initial residual = 0, Final residual = 0, No Iterations 0
diagonal:  Solving for rhoUx, Initial residual = 0, Final residual = 0, No Iterations 0
diagonal:  Solving for rhoUy, Initial residual = 0, Final residual = 0, No Iterations 0
diagonal:  Solving for rhoE, Initial residual = 0, Final residual = 0, No Iterations 0
ExecutionTime = 0.89 s  ClockTime = 1 s

deltaT = 0.00147109
Mean and max Courant Numbers = 0.0683471 0.200688
Time = 0.00995976

diagonal:  Solving for rho, Initial residual = 0, Final residual = 0, No Iterations 0
diagonal:  Solving for rhoUx, Initial residual = 0, Final residual = 0, No Iterations 0
diagonal:  Solving for rhoUy, Initial residual = 0, Final residual = 0, No Iterations 0
diagonal:  Solving for rhoE, Initial residual = 0, Final residual = 0, No Iterations 0
ExecutionTime = 0.98 s  ClockTime = 1 s

deltaT = 0.00146456
Mean and max Courant Numbers = 0.0680409 0.199791
Time = 0.0114243

diagonal:  Solving for rho, Initial residual = 0, Final residual = 0, No Iterations 0
diagonal:  Solving for rhoUx, Initial residual = 0, Final residual = 0, No Iterations 0
diagonal:  Solving for rhoUy, Initial residual = 0, Final residual = 0, No Iterations 0
diagonal:  Solving for rhoE, Initial residual = 0, Final residual = 0, No Iterations 0
ExecutionTime = 1.06 s  ClockTime = 1 s

deltaT = 0.00146456
Mean and max Courant Numbers = 0.0680372 0.199918
Time = 0.0128889

diagonal:  Solving for rho, Initial residual = 0, Final residual = 0, No Iterations 0
diagonal:  Solving for rhoUx, Initial residual = 0, Final residual = 0, No Iterations 0
diagonal:  Solving for rhoUy, Initial residual = 0, Final residual = 0, No Iterations 0
diagonal:  Solving for rhoE, Initial residual = 0, Final residual = 0, No Iterations 0
ExecutionTime = 1.14 s  ClockTime = 1 s

deltaT = 0.00146456
Mean and max Courant Numbers = 0.0680329 0.199989
Time = 0.0143534

diagonal:  Solving for rho, Initial residual = 0, Final residual = 0, No Iterations 0
diagonal:  Solving for rhoUx, Initial residual = 0, Final residual = 0, No Iterations 0
diagonal:  Solving for rhoUy, Initial residual = 0, Final residual = 0, No Iterations 0
diagonal:  Solving for rhoE, Initial residual = 0, Final residual = 0, No Iterations 0
ExecutionTime = 1.22 s  ClockTime = 1 s

deltaT = 0.00146456
Mean and max Courant Numbers = 0.0680283 0.199995
Time = 0.015818

diagonal:  Solving for rho, Initial residual = 0, Final residual = 0, No Iterations 0
diagonal:  Solving for rhoUx, Initial residual = 0, Final residual = 0, No Iterations 0
diagonal:  Solving for rhoUy, Initial residual = 0, Final residual = 0, No Iterations 0
diagonal:  Solving for rhoE, Initial residual = 0, Final residual = 0, No Iterations 0
ExecutionTime = 1.31 s  ClockTime = 1 s

deltaT = 0.00146456
Mean and max Courant Numbers = 0.0680234 0.199927
Time = 0.0172825

diagonal:  Solving for rho, Initial residual = 0, Final residual = 0, No Iterations 0
diagonal:  Solving for rhoUx, Initial residual = 0, Final residual = 0, No Iterations 0
diagonal:  Solving for rhoUy, Initial residual = 0, Final residual = 0, No Iterations 0
diagonal:  Solving for rhoE, Initial residual = 0, Final residual = 0, No Iterations 0
ExecutionTime = 1.39 s  ClockTime = 1 s

deltaT = 0.00146456
Mean and max Courant Numbers = 0.0680185 0.199783
Time = 0.0187471

diagonal:  Solving for rho, Initial residual = 0, Final residual = 0, No Iterations 0
diagonal:  Solving for rhoUx, Initial residual = 0, Final residual = 0, No Iterations 0
diagonal:  Solving for rhoUy, Initial residual = 0, Final residual = 0, No Iterations 0
diagonal:  Solving for rhoE, Initial residual = 0, Final residual = 0, No Iterations 0
ExecutionTime = 1.47 s  ClockTime = 1 s

deltaT = 0.00146456
Mean and max Courant Numbers = 0.0680134 0.199571
Time = 0.0202117

diagonal:  Solving for rho, Initial residual = 0, Final residual = 0, No Iterations 0
diagonal:  Solving for rhoUx, Initial residual = 0, Final residual = 0, No Iterations 0
diagonal:  Solving for rhoUy, Initial residual = 0, Final residual = 0, No Iterations 0
diagonal:  Solving for rhoE, Initial residual = 0, Final residual = 0, No Iterations 0
ExecutionTime = 1.55 s  ClockTime = 1 s

deltaT = 0.00146675
Mean and max Courant Numbers = 0.0681102 0.199609
Time = 0.0216784

diagonal:  Solving for rho, Initial residual = 0, Final residual = 0, No Iterations 0
diagonal:  Solving for rhoUx, Initial residual = 0, Final residual = 0, No Iterations 0
diagonal:  Solving for rhoUy, Initial residual = 0, Final residual = 0, No Iterations 0
diagonal:  Solving for rhoE, Initial residual = 0, Final residual = 0, No Iterations 0
ExecutionTime = 1.63 s  ClockTime = 2 s

deltaT = 0.00146895
Mean and max Courant Numbers = 0.0682072 0.199619
Time = 0.0231474

diagonal:  Solving for rho, Initial residual = 0, Final residual = 0, No Iterations 0
diagonal:  Solving for rhoUx, Initial residual = 0, Final residual = 0, No Iterations 0
diagonal:  Solving for rhoUy, Initial residual = 0, Final residual = 0, No Iterations 0
diagonal:  Solving for rhoE, Initial residual = 0, Final residual = 0, No Iterations 0
ExecutionTime = 1.71 s  ClockTime = 2 s

deltaT = 0.00147116
Mean and max Courant Numbers = 0.0683046 0.199636
Time = 0.0246185

diagonal:  Solving for rho, Initial residual = 0, Final residual = 0, No Iterations 0
diagonal:  Solving for rhoUx, Initial residual = 0, Final residual = 0, No Iterations 0
diagonal:  Solving for rhoUy, Initial residual = 0, Final residual = 0, No Iterations 0
diagonal:  Solving for rhoE, Initial residual = 0, Final residual = 0, No Iterations 0
ExecutionTime = 1.8 s  ClockTime = 2 s

deltaT = 0.00147339
Mean and max Courant Numbers = 0.0684022 0.199683
Time = 0.0260919

diagonal:  Solving for rho, Initial residual = 0, Final residual = 0, No Iterations 0
diagonal:  Solving for rhoUx, Initial residual = 0, Final residual = 0, No Iterations 0
diagonal:  Solving for rhoUy, Initial residual = 0, Final residual = 0, No Iterations 0
diagonal:  Solving for rhoE, Initial residual = 0, Final residual = 0, No Iterations 0
ExecutionTime = 1.88 s  ClockTime = 2 s

deltaT = 0.00147562
Mean and max Courant Numbers = 0.0685002 0.199773
Time = 0.0275675

diagonal:  Solving for rho, Initial residual = 0, Final residual = 0, No Iterations 0
diagonal:  Solving for rhoUx, Initial residual = 0, Final residual = 0, No Iterations 0
diagonal:  Solving for rhoUy, Initial residual = 0, Final residual = 0, No Iterations 0
diagonal:  Solving for rhoE, Initial residual = 0, Final residual = 0, No Iterations 0
ExecutionTime = 1.95 s  ClockTime = 2 s

deltaT = 0.00147562
Mean and max Courant Numbers = 0.0684943 0.199611
Time = 0.0290431

diagonal:  Solving for rho, Initial residual = 0, Final residual = 0, No Iterations 0
diagonal:  Solving for rhoUx, Initial residual = 0, Final residual = 0, No Iterations 0
diagonal:  Solving for rhoUy, Initial residual = 0, Final residual = 0, No Iterations 0
diagonal:  Solving for rhoE, Initial residual = 0, Final residual = 0, No Iterations 0
ExecutionTime = 2.04 s  ClockTime = 2 s

deltaT = 0.00147786
Mean and max Courant Numbers = 0.0685926 0.199804
Time = 0.030521

diagonal:  Solving for rho, Initial residual = 0, Final residual = 0, No Iterations 0
diagonal:  Solving for rhoUx, Initial residual = 0, Final residual = 0, No Iterations 0
diagonal:  Solving for rhoUy, Initial residual = 0, Final residual = 0, No Iterations 0
diagonal:  Solving for rhoE, Initial residual = 0, Final residual = 0, No Iterations 0
ExecutionTime = 2.12 s  ClockTime = 2 s

deltaT = 0.00147786
Mean and max Courant Numbers = 0.0685866 0.199736
Time = 0.0319989

diagonal:  Solving for rho, Initial residual = 0, Final residual = 0, No Iterations 0
diagonal:  Solving for rhoUx, Initial residual = 0, Final residual = 0, No Iterations 0
diagonal:  Solving for rhoUy, Initial residual = 0, Final residual = 0, No Iterations 0
diagonal:  Solving for rhoE, Initial residual = 0, Final residual = 0, No Iterations 0
ExecutionTime = 2.2 s  ClockTime = 2 s

deltaT = 0.00147786
Mean and max Courant Numbers = 0.0685804 0.199705
Time = 0.0334767

diagonal:  Solving for rho, Initial residual = 0, Final residual = 0, No Iterations 0
diagonal:  Solving for rhoUx, Initial residual = 0, Final residual = 0, No Iterations 0
diagonal:  Solving for rhoUy, Initial residual = 0, Final residual = 0, No Iterations 0
diagonal:  Solving for rhoE, Initial residual = 0, Final residual = 0, No Iterations 0
ExecutionTime = 2.28 s  ClockTime = 2 s

deltaT = 0.00147786
Mean and max Courant Numbers = 0.0685741 0.199698
Time = 0.0349546

diagonal:  Solving for rho, Initial residual = 0, Final residual = 0, No Iterations 0
diagonal:  Solving for rhoUx, Initial residual = 0, Final residual = 0, No Iterations 0
diagonal:  Solving for rhoUy, Initial residual = 0, Final residual = 0, No Iterations 0
diagonal:  Solving for rhoE, Initial residual = 0, Final residual = 0, No Iterations 0
ExecutionTime = 2.37 s  ClockTime = 2 s

deltaT = 0.00147786
Mean and max Courant Numbers = 0.0685678 0.199708
Time = 0.0364325

diagonal:  Solving for rho, Initial residual = 0, Final residual = 0, No Iterations 0
diagonal:  Solving for rhoUx, Initial residual = 0, Final residual = 0, No Iterations 0
diagonal:  Solving for rhoUy, Initial residual = 0, Final residual = 0, No Iterations 0
diagonal:  Solving for rhoE, Initial residual = 0, Final residual = 0, No Iterations 0
ExecutionTime = 2.44 s  ClockTime = 2 s

deltaT = 0.00147786
Mean and max Courant Numbers = 0.0685614 0.199725
Time = 0.0379103

diagonal:  Solving for rho, Initial residual = 0, Final residual = 0, No Iterations 0
diagonal:  Solving for rhoUx, Initial residual = 0, Final residual = 0, No Iterations 0
diagonal:  Solving for rhoUy, Initial residual = 0, Final residual = 0, No Iterations 0
diagonal:  Solving for rhoE, Initial residual = 0, Final residual = 0, No Iterations 0
ExecutionTime = 2.53 s  ClockTime = 2 s

deltaT = 0.00147786
Mean and max Courant Numbers = 0.0685549 0.199742
Time = 0.0393882

diagonal:  Solving for rho, Initial residual = 0, Final residual = 0, No Iterations 0
diagonal:  Solving for rhoUx, Initial residual = 0, Final residual = 0, No Iterations 0
diagonal:  Solving for rhoUy, Initial residual = 0, Final residual = 0, No Iterations 0
diagonal:  Solving for rhoE, Initial residual = 0, Final residual = 0, No Iterations 0
ExecutionTime = 2.61 s  ClockTime = 2 s

deltaT = 0.00147786
Mean and max Courant Numbers = 0.0685484 0.199753
Time = 0.0408661

diagonal:  Solving for rho, Initial residual = 0, Final residual = 0, No Iterations 0
diagonal:  Solving for rhoUx, Initial residual = 0, Final residual = 0, No Iterations 0
diagonal:  Solving for rhoUy, Initial residual = 0, Final residual = 0, No Iterations 0
diagonal:  Solving for rhoE, Initial residual = 0, Final residual = 0, No Iterations 0
ExecutionTime = 2.69 s  ClockTime = 3 s

deltaT = 0.00147786
Mean and max Courant Numbers = 0.0685419 0.199755
Time = 0.0423439

diagonal:  Solving for rho, Initial residual = 0, Final residual = 0, No Iterations 0
diagonal:  Solving for rhoUx, Initial residual = 0, Final residual = 0, No Iterations 0
diagonal:  Solving for rhoUy, Initial residual = 0, Final residual = 0, No Iterations 0
diagonal:  Solving for rhoE, Initial residual = 0, Final residual = 0, No Iterations 0
ExecutionTime = 2.78 s  ClockTime = 3 s

deltaT = 0.00147786
Mean and max Courant Numbers = 0.0685353 0.199746
Time = 0.0438218

diagonal:  Solving for rho, Initial residual = 0, Final residual = 0, No Iterations 0
diagonal:  Solving for rhoUx, Initial residual = 0, Final residual = 0, No Iterations 0
diagonal:  Solving for rhoUy, Initial residual = 0, Final residual = 0, No Iterations 0
diagonal:  Solving for rhoE, Initial residual = 0, Final residual = 0, No Iterations 0
ExecutionTime = 2.86 s  ClockTime = 3 s

deltaT = 0.00147786
Mean and max Courant Numbers = 0.0685287 0.199725
Time = 0.0452997

diagonal:  Solving for rho, Initial residual = 0, Final residual = 0, No Iterations 0
diagonal:  Solving for rhoUx, Initial residual = 0, Final residual = 0, No Iterations 0
diagonal:  Solving for rhoUy, Initial residual = 0, Final residual = 0, No Iterations 0
diagonal:  Solving for rhoE, Initial residual = 0, Final residual = 0, No Iterations 0
ExecutionTime = 2.95 s  ClockTime = 3 s

deltaT = 0.00147786
Mean and max Courant Numbers = 0.0685222 0.199691
Time = 0.0467775

diagonal:  Solving for rho, Initial residual = 0, Final residual = 0, No Iterations 0
diagonal:  Solving for rhoUx, Initial residual = 0, Final residual = 0, No Iterations 0
diagonal:  Solving for rhoUy, Initial residual = 0, Final residual = 0, No Iterations 0
diagonal:  Solving for rhoE, Initial residual = 0, Final residual = 0, No Iterations 0
ExecutionTime = 3.02 s  ClockTime = 3 s

deltaT = 0.00148016
Mean and max Courant Numbers = 0.068622 0.199956
Time = 0.0482577

diagonal:  Solving for rho, Initial residual = 0, Final residual = 0, No Iterations 0
diagonal:  Solving for rhoUx, Initial residual = 0, Final residual = 0, No Iterations 0
diagonal:  Solving for rhoUy, Initial residual = 0, Final residual = 0, No Iterations 0
diagonal:  Solving for rhoE, Initial residual = 0, Final residual = 0, No Iterations 0
ExecutionTime = 3.11 s  ClockTime = 3 s

deltaT = 0.00148016
Mean and max Courant Numbers = 0.0686155 0.1999
Time = 0.0497378

diagonal:  Solving for rho, Initial residual = 0, Final residual = 0, No Iterations 0
diagonal:  Solving for rhoUx, Initial residual = 0, Final residual = 0, No Iterations 0
diagonal:  Solving for rhoUy, Initial residual = 0, Final residual = 0, No Iterations 0
diagonal:  Solving for rhoE, Initial residual = 0, Final residual = 0, No Iterations 0
ExecutionTime = 3.19 s  ClockTime = 3 s

deltaT = 0.00148016
Mean and max Courant Numbers = 0.0686091 0.199836
Time = 0.051218

diagonal:  Solving for rho, Initial residual = 0, Final residual = 0, No Iterations 0
diagonal:  Solving for rhoUx, Initial residual = 0, Final residual = 0, No Iterations 0
diagonal:  Solving for rhoUy, Initial residual = 0, Final residual = 0, No Iterations 0
diagonal:  Solving for rhoE, Initial residual = 0, Final residual = 0, No Iterations 0
ExecutionTime = 3.27 s  ClockTime = 3 s

deltaT = 0.00148016
Mean and max Courant Numbers = 0.0686028 0.199764
Time = 0.0526982

diagonal:  Solving for rho, Initial residual = 0, Final residual = 0, No Iterations 0
diagonal:  Solving for rhoUx, Initial residual = 0, Final residual = 0, No Iterations 0
diagonal:  Solving for rhoUy, Initial residual = 0, Final residual = 0, No Iterations 0
diagonal:  Solving for rhoE, Initial residual = 0, Final residual = 0, No Iterations 0
ExecutionTime = 3.36 s  ClockTime = 3 s

deltaT = 0.00148016
Mean and max Courant Numbers = 0.0685965 0.199687
Time = 0.0541783

diagonal:  Solving for rho, Initial residual = 0, Final residual = 0, No Iterations 0
diagonal:  Solving for rhoUx, Initial residual = 0, Final residual = 0, No Iterations 0
diagonal:  Solving for rhoUy, Initial residual = 0, Final residual = 0, No Iterations 0
diagonal:  Solving for rhoE, Initial residual = 0, Final residual = 0, No Iterations 0
ExecutionTime = 3.44 s  ClockTime = 3 s

deltaT = 0.00148248
Mean and max Courant Numbers = 0.0686978 0.199919
Time = 0.0556608

diagonal:  Solving for rho, Initial residual = 0, Final residual = 0, No Iterations 0
diagonal:  Solving for rhoUx, Initial residual = 0, Final residual = 0, No Iterations 0
diagonal:  Solving for rhoUy, Initial residual = 0, Final residual = 0, No Iterations 0
diagonal:  Solving for rhoE, Initial residual = 0, Final residual = 0, No Iterations 0
ExecutionTime = 3.51 s  ClockTime = 3 s

deltaT = 0.00148248
Mean and max Courant Numbers = 0.0686917 0.199835
Time = 0.0571433

diagonal:  Solving for rho, Initial residual = 0, Final residual = 0, No Iterations 0
diagonal:  Solving for rhoUx, Initial residual = 0, Final residual = 0, No Iterations 0
diagonal:  Solving for rhoUy, Initial residual = 0, Final residual = 0, No Iterations 0
diagonal:  Solving for rhoE, Initial residual = 0, Final residual = 0, No Iterations 0
ExecutionTime = 3.6 s  ClockTime = 3 s

deltaT = 0.00148248
Mean and max Courant Numbers = 0.0686856 0.199752
Time = 0.0586258

diagonal:  Solving for rho, Initial residual = 0, Final residual = 0, No Iterations 0
diagonal:  Solving for rhoUx, Initial residual = 0, Final residual = 0, No Iterations 0
diagonal:  Solving for rhoUy, Initial residual = 0, Final residual = 0, No Iterations 0
diagonal:  Solving for rhoE, Initial residual = 0, Final residual = 0, No Iterations 0
ExecutionTime = 3.67 s  ClockTime = 4 s

deltaT = 0.00148248
Mean and max Courant Numbers = 0.0686796 0.199669
Time = 0.0601082

diagonal:  Solving for rho, Initial residual = 0, Final residual = 0, No Iterations 0
diagonal:  Solving for rhoUx, Initial residual = 0, Final residual = 0, No Iterations 0
diagonal:  Solving for rhoUy, Initial residual = 0, Final residual = 0, No Iterations 0
diagonal:  Solving for rhoE, Initial residual = 0, Final residual = 0, No Iterations 0
ExecutionTime = 3.76 s  ClockTime = 4 s

deltaT = 0.00148482
Mean and max Courant Numbers = 0.0687821 0.199903
Time = 0.0615931

diagonal:  Solving for rho, Initial residual = 0, Final residual = 0, No Iterations 0
diagonal:  Solving for rhoUx, Initial residual = 0, Final residual = 0, No Iterations 0
diagonal:  Solving for rhoUy, Initial residual = 0, Final residual = 0, No Iterations 0
diagonal:  Solving for rhoE, Initial residual = 0, Final residual = 0, No Iterations 0
ExecutionTime = 3.84 s  ClockTime = 4 s

deltaT = 0.00148482
Mean and max Courant Numbers = 0.0687761 0.199824
Time = 0.0630779

diagonal:  Solving for rho, Initial residual = 0, Final residual = 0, No Iterations 0
diagonal:  Solving for rhoUx, Initial residual = 0, Final residual = 0, No Iterations 0
diagonal:  Solving for rhoUy, Initial residual = 0, Final residual = 0, No Iterations 0
diagonal:  Solving for rhoE, Initial residual = 0, Final residual = 0, No Iterations 0
ExecutionTime = 3.91 s  ClockTime = 4 s

deltaT = 0.00148482
Mean and max Courant Numbers = 0.0687702 0.199748
Time = 0.0645627

diagonal:  Solving for rho, Initial residual = 0, Final residual = 0, No Iterations 0
diagonal:  Solving for rhoUx, Initial residual = 0, Final residual = 0, No Iterations 0
diagonal:  Solving for rhoUy, Initial residual = 0, Final residual = 0, No Iterations 0
diagonal:  Solving for rhoE, Initial residual = 0, Final residual = 0, No Iterations 0
ExecutionTime = 4 s  ClockTime = 4 s

deltaT = 0.00148482
Mean and max Courant Numbers = 0.0687643 0.199677
Time = 0.0660475

diagonal:  Solving for rho, Initial residual = 0, Final residual = 0, No Iterations 0
diagonal:  Solving for rhoUx, Initial residual = 0, Final residual = 0, No Iterations 0
diagonal:  Solving for rhoUy, Initial residual = 0, Final residual = 0, No Iterations 0
diagonal:  Solving for rhoE, Initial residual = 0, Final residual = 0, No Iterations 0
ExecutionTime = 4.08 s  ClockTime = 4 s

deltaT = 0.00148719
Mean and max Courant Numbers = 0.0688678 0.199927
Time = 0.0675347

diagonal:  Solving for rho, Initial residual = 0, Final residual = 0, No Iterations 0
diagonal:  Solving for rhoUx, Initial residual = 0, Final residual = 0, No Iterations 0
diagonal:  Solving for rhoUy, Initial residual = 0, Final residual = 0, No Iterations 0
diagonal:  Solving for rhoE, Initial residual = 0, Final residual = 0, No Iterations 0
ExecutionTime = 4.16 s  ClockTime = 4 s

deltaT = 0.00148719
Mean and max Courant Numbers = 0.0688619 0.199862
Time = 0.0690219

diagonal:  Solving for rho, Initial residual = 0, Final residual = 0, No Iterations 0
diagonal:  Solving for rhoUx, Initial residual = 0, Final residual = 0, No Iterations 0
diagonal:  Solving for rhoUy, Initial residual = 0, Final residual = 0, No Iterations 0
diagonal:  Solving for rhoE, Initial residual = 0, Final residual = 0, No Iterations 0
ExecutionTime = 4.25 s  ClockTime = 4 s

deltaT = 0.00148719
Mean and max Courant Numbers = 0.068856 0.199802
Time = 0.0705091

diagonal:  Solving for rho, Initial residual = 0, Final residual = 0, No Iterations 0
diagonal:  Solving for rhoUx, Initial residual = 0, Final residual = 0, No Iterations 0
diagonal:  Solving for rhoUy, Initial residual = 0, Final residual = 0, No Iterations 0
diagonal:  Solving for rhoE, Initial residual = 0, Final residual = 0, No Iterations 0
ExecutionTime = 4.33 s  ClockTime = 4 s

deltaT = 0.00148719
Mean and max Courant Numbers = 0.0688501 0.199745
Time = 0.0719963

diagonal:  Solving for rho, Initial residual = 0, Final residual = 0, No Iterations 0
diagonal:  Solving for rhoUx, Initial residual = 0, Final residual = 0, No Iterations 0
diagonal:  Solving for rhoUy, Initial residual = 0, Final residual = 0, No Iterations 0
diagonal:  Solving for rhoE, Initial residual = 0, Final residual = 0, No Iterations 0
ExecutionTime = 4.41 s  ClockTime = 4 s

deltaT = 0.00148719
Mean and max Courant Numbers = 0.0688442 0.199692
Time = 0.0734834

diagonal:  Solving for rho, Initial residual = 0, Final residual = 0, No Iterations 0
diagonal:  Solving for rhoUx, Initial residual = 0, Final residual = 0, No Iterations 0
diagonal:  Solving for rhoUy, Initial residual = 0, Final residual = 0, No Iterations 0
diagonal:  Solving for rhoE, Initial residual = 0, Final residual = 0, No Iterations 0
ExecutionTime = 4.49 s  ClockTime = 4 s

deltaT = 0.00148719
Mean and max Courant Numbers = 0.0688383 0.199641
Time = 0.0749706

diagonal:  Solving for rho, Initial residual = 0, Final residual = 0, No Iterations 0
diagonal:  Solving for rhoUx, Initial residual = 0, Final residual = 0, No Iterations 0
diagonal:  Solving for rhoUy, Initial residual = 0, Final residual = 0, No Iterations 0
diagonal:  Solving for rhoE, Initial residual = 0, Final residual = 0, No Iterations 0
ExecutionTime = 4.57 s  ClockTime = 4 s

deltaT = 0.00148958
Mean and max Courant Numbers = 0.0689432 0.199915
Time = 0.0764602

diagonal:  Solving for rho, Initial residual = 0, Final residual = 0, No Iterations 0
diagonal:  Solving for rhoUx, Initial residual = 0, Final residual = 0, No Iterations 0
diagonal:  Solving for rhoUy, Initial residual = 0, Final residual = 0, No Iterations 0
diagonal:  Solving for rhoE, Initial residual = 0, Final residual = 0, No Iterations 0
ExecutionTime = 4.64 s  ClockTime = 5 s

deltaT = 0.00148958
Mean and max Courant Numbers = 0.0689373 0.199868
Time = 0.0779498

diagonal:  Solving for rho, Initial residual = 0, Final residual = 0, No Iterations 0
diagonal:  Solving for rhoUx, Initial residual = 0, Final residual = 0, No Iterations 0
diagonal:  Solving for rhoUy, Initial residual = 0, Final residual = 0, No Iterations 0
diagonal:  Solving for rhoE, Initial residual = 0, Final residual = 0, No Iterations 0
ExecutionTime = 4.73 s  ClockTime = 5 s

deltaT = 0.00148958
Mean and max Courant Numbers = 0.0689314 0.199824
Time = 0.0794394

diagonal:  Solving for rho, Initial residual = 0, Final residual = 0, No Iterations 0
diagonal:  Solving for rhoUx, Initial residual = 0, Final residual = 0, No Iterations 0
diagonal:  Solving for rhoUy, Initial residual = 0, Final residual = 0, No Iterations 0
diagonal:  Solving for rhoE, Initial residual = 0, Final residual = 0, No Iterations 0
ExecutionTime = 4.81 s  ClockTime = 5 s

deltaT = 0.00148958
Mean and max Courant Numbers = 0.0689254 0.199781
Time = 0.0809289

diagonal:  Solving for rho, Initial residual = 0, Final residual = 0, No Iterations 0
diagonal:  Solving for rhoUx, Initial residual = 0, Final residual = 0, No Iterations 0
diagonal:  Solving for rhoUy, Initial residual = 0, Final residual = 0, No Iterations 0
diagonal:  Solving for rhoE, Initial residual = 0, Final residual = 0, No Iterations 0
ExecutionTime = 4.89 s  ClockTime = 5 s

deltaT = 0.00148958
Mean and max Courant Numbers = 0.0689194 0.199739
Time = 0.0824185

diagonal:  Solving for rho, Initial residual = 0, Final residual = 0, No Iterations 0
diagonal:  Solving for rhoUx, Initial residual = 0, Final residual = 0, No Iterations 0
diagonal:  Solving for rhoUy, Initial residual = 0, Final residual = 0, No Iterations 0
diagonal:  Solving for rhoE, Initial residual = 0, Final residual = 0, No Iterations 0
ExecutionTime = 4.97 s  ClockTime = 5 s

deltaT = 0.00148958
Mean and max Courant Numbers = 0.0689134 0.199698
Time = 0.0839081

diagonal:  Solving for rho, Initial residual = 0, Final residual = 0, No Iterations 0
diagonal:  Solving for rhoUx, Initial residual = 0, Final residual = 0, No Iterations 0
diagonal:  Solving for rhoUy, Initial residual = 0, Final residual = 0, No Iterations 0
diagonal:  Solving for rhoE, Initial residual = 0, Final residual = 0, No Iterations 0
ExecutionTime = 5.05 s  ClockTime = 5 s

deltaT = 0.00148958
Mean and max Courant Numbers = 0.0689074 0.199656
Time = 0.0853977

diagonal:  Solving for rho, Initial residual = 0, Final residual = 0, No Iterations 0
diagonal:  Solving for rhoUx, Initial residual = 0, Final residual = 0, No Iterations 0
diagonal:  Solving for rhoUy, Initial residual = 0, Final residual = 0, No Iterations 0
diagonal:  Solving for rhoE, Initial residual = 0, Final residual = 0, No Iterations 0
ExecutionTime = 5.14 s  ClockTime = 5 s

deltaT = 0.00149201
Mean and max Courant Numbers = 0.0690138 0.199941
Time = 0.0868897

diagonal:  Solving for rho, Initial residual = 0, Final residual = 0, No Iterations 0
diagonal:  Solving for rhoUx, Initial residual = 0, Final residual = 0, No Iterations 0
diagonal:  Solving for rhoUy, Initial residual = 0, Final residual = 0, No Iterations 0
diagonal:  Solving for rhoE, Initial residual = 0, Final residual = 0, No Iterations 0
ExecutionTime = 5.21 s  ClockTime = 5 s

deltaT = 0.00149201
Mean and max Courant Numbers = 0.0690077 0.1999
Time = 0.0883817

diagonal:  Solving for rho, Initial residual = 0, Final residual = 0, No Iterations 0
diagonal:  Solving for rhoUx, Initial residual = 0, Final residual = 0, No Iterations 0
diagonal:  Solving for rhoUy, Initial residual = 0, Final residual = 0, No Iterations 0
diagonal:  Solving for rhoE, Initial residual = 0, Final residual = 0, No Iterations 0
ExecutionTime = 5.3 s  ClockTime = 5 s

deltaT = 0.00149201
Mean and max Courant Numbers = 0.0690017 0.199858
Time = 0.0898737

diagonal:  Solving for rho, Initial residual = 0, Final residual = 0, No Iterations 0
diagonal:  Solving for rhoUx, Initial residual = 0, Final residual = 0, No Iterations 0
diagonal:  Solving for rhoUy, Initial residual = 0, Final residual = 0, No Iterations 0
diagonal:  Solving for rhoE, Initial residual = 0, Final residual = 0, No Iterations 0
ExecutionTime = 5.38 s  ClockTime = 5 s

deltaT = 0.00149201
Mean and max Courant Numbers = 0.0689957 0.199816
Time = 0.0913657

diagonal:  Solving for rho, Initial residual = 0, Final residual = 0, No Iterations 0
diagonal:  Solving for rhoUx, Initial residual = 0, Final residual = 0, No Iterations 0
diagonal:  Solving for rhoUy, Initial residual = 0, Final residual = 0, No Iterations 0
diagonal:  Solving for rhoE, Initial residual = 0, Final residual = 0, No Iterations 0
ExecutionTime = 5.46 s  ClockTime = 5 s

deltaT = 0.00149201
Mean and max Courant Numbers = 0.0689898 0.199774
Time = 0.0928577

diagonal:  Solving for rho, Initial residual = 0, Final residual = 0, No Iterations 0
diagonal:  Solving for rhoUx, Initial residual = 0, Final residual = 0, No Iterations 0
diagonal:  Solving for rhoUy, Initial residual = 0, Final residual = 0, No Iterations 0
diagonal:  Solving for rhoE, Initial residual = 0, Final residual = 0, No Iterations 0
ExecutionTime = 5.54 s  ClockTime = 5 s

deltaT = 0.00149201
Mean and max Courant Numbers = 0.0689838 0.19973
Time = 0.0943498

diagonal:  Solving for rho, Initial residual = 0, Final residual = 0, No Iterations 0
diagonal:  Solving for rhoUx, Initial residual = 0, Final residual = 0, No Iterations 0
diagonal:  Solving for rhoUy, Initial residual = 0, Final residual = 0, No Iterations 0
diagonal:  Solving for rhoE, Initial residual = 0, Final residual = 0, No Iterations 0
ExecutionTime = 5.62 s  ClockTime = 6 s

deltaT = 0.00149201
Mean and max Courant Numbers = 0.0689778 0.199687
Time = 0.0958418

diagonal:  Solving for rho, Initial residual = 0, Final residual = 0, No Iterations 0
diagonal:  Solving for rhoUx, Initial residual = 0, Final residual = 0, No Iterations 0
diagonal:  Solving for rhoUy, Initial residual = 0, Final residual = 0, No Iterations 0
diagonal:  Solving for rhoE, Initial residual = 0, Final residual = 0, No Iterations 0
ExecutionTime = 5.7 s  ClockTime = 6 s

deltaT = 0.00149201
Mean and max Courant Numbers = 0.0689718 0.199643
Time = 0.0973338

diagonal:  Solving for rho, Initial residual = 0, Final residual = 0, No Iterations 0
diagonal:  Solving for rhoUx, Initial residual = 0, Final residual = 0, No Iterations 0
diagonal:  Solving for rhoUy, Initial residual = 0, Final residual = 0, No Iterations 0
diagonal:  Solving for rhoE, Initial residual = 0, Final residual = 0, No Iterations 0
ExecutionTime = 5.78 s  ClockTime = 6 s

deltaT = 0.00149448
Mean and max Courant Numbers = 0.0690799 0.199928
Time = 0.0988283

diagonal:  Solving for rho, Initial residual = 0, Final residual = 0, No Iterations 0
diagonal:  Solving for rhoUx, Initial residual = 0, Final residual = 0, No Iterations 0
diagonal:  Solving for rhoUy, Initial residual = 0, Final residual = 0, No Iterations 0
diagonal:  Solving for rhoE, Initial residual = 0, Final residual = 0, No Iterations 0
ExecutionTime = 5.86 s  ClockTime = 6 s

deltaT = 0.00149448
Mean and max Courant Numbers = 0.0690739 0.199883
Time = 0.100323

diagonal:  Solving for rho, Initial residual = 0, Final residual = 0, No Iterations 0
diagonal:  Solving for rhoUx, Initial residual = 0, Final residual = 0, No Iterations 0
diagonal:  Solving for rhoUy, Initial residual = 0, Final residual = 0, No Iterations 0
diagonal:  Solving for rhoE, Initial residual = 0, Final residual = 0, No Iterations 0
ExecutionTime = 5.95 s  ClockTime = 6 s

deltaT = 0.00149448
Mean and max Courant Numbers = 0.069068 0.199837
Time = 0.101817

diagonal:  Solving for rho, Initial residual = 0, Final residual = 0, No Iterations 0
diagonal:  Solving for rhoUx, Initial residual = 0, Final residual = 0, No Iterations 0
diagonal:  Solving for rhoUy, Initial residual = 0, Final residual = 0, No Iterations 0
diagonal:  Solving for rhoE, Initial residual = 0, Final residual = 0, No Iterations 0
ExecutionTime = 6.02 s  ClockTime = 6 s

deltaT = 0.00149448
Mean and max Courant Numbers = 0.069062 0.199791
Time = 0.103312

diagonal:  Solving for rho, Initial residual = 0, Final residual = 0, No Iterations 0
diagonal:  Solving for rhoUx, Initial residual = 0, Final residual = 0, No Iterations 0
diagonal:  Solving for rhoUy, Initial residual = 0, Final residual = 0, No Iterations 0
diagonal:  Solving for rhoE, Initial residual = 0, Final residual = 0, No Iterations 0
ExecutionTime = 6.11 s  ClockTime = 6 s

deltaT = 0.00149448
Mean and max Courant Numbers = 0.0690561 0.199745
Time = 0.104806

diagonal:  Solving for rho, Initial residual = 0, Final residual = 0, No Iterations 0
diagonal:  Solving for rhoUx, Initial residual = 0, Final residual = 0, No Iterations 0
diagonal:  Solving for rhoUy, Initial residual = 0, Final residual = 0, No Iterations 0
diagonal:  Solving for rhoE, Initial residual = 0, Final residual = 0, No Iterations 0
ExecutionTime = 6.19 s  ClockTime = 6 s

deltaT = 0.00149448
Mean and max Courant Numbers = 0.0690502 0.199699
Time = 0.106301

diagonal:  Solving for rho, Initial residual = 0, Final residual = 0, No Iterations 0
diagonal:  Solving for rhoUx, Initial residual = 0, Final residual = 0, No Iterations 0
diagonal:  Solving for rhoUy, Initial residual = 0, Final residual = 0, No Iterations 0
diagonal:  Solving for rhoE, Initial residual = 0, Final residual = 0, No Iterations 0
ExecutionTime = 6.27 s  ClockTime = 6 s

deltaT = 0.00149448
Mean and max Courant Numbers = 0.0690443 0.199652
Time = 0.107795

diagonal:  Solving for rho, Initial residual = 0, Final residual = 0, No Iterations 0
diagonal:  Solving for rhoUx, Initial residual = 0, Final residual = 0, No Iterations 0
diagonal:  Solving for rhoUy, Initial residual = 0, Final residual = 0, No Iterations 0
diagonal:  Solving for rhoE, Initial residual = 0, Final residual = 0, No Iterations 0
ExecutionTime = 6.35 s  ClockTime = 6 s

deltaT = 0.00149699
Mean and max Courant Numbers = 0.0691544 0.199941
Time = 0.109292

diagonal:  Solving for rho, Initial residual = 0, Final residual = 0, No Iterations 0
diagonal:  Solving for rhoUx, Initial residual = 0, Final residual = 0, No Iterations 0
diagonal:  Solving for rhoUy, Initial residual = 0, Final residual = 0, No Iterations 0
diagonal:  Solving for rhoE, Initial residual = 0, Final residual = 0, No Iterations 0
ExecutionTime = 6.43 s  ClockTime = 6 s

deltaT = 0.00149699
Mean and max Courant Numbers = 0.0691486 0.199894
Time = 0.110789

diagonal:  Solving for rho, Initial residual = 0, Final residual = 0, No Iterations 0
diagonal:  Solving for rhoUx, Initial residual = 0, Final residual = 0, No Iterations 0
diagonal:  Solving for rhoUy, Initial residual = 0, Final residual = 0, No Iterations 0
diagonal:  Solving for rhoE, Initial residual = 0, Final residual = 0, No Iterations 0
ExecutionTime = 6.51 s  ClockTime = 6 s

deltaT = 0.00149699
Mean and max Courant Numbers = 0.069143 0.199848
Time = 0.112286

diagonal:  Solving for rho, Initial residual = 0, Final residual = 0, No Iterations 0
diagonal:  Solving for rhoUx, Initial residual = 0, Final residual = 0, No Iterations 0
diagonal:  Solving for rhoUy, Initial residual = 0, Final residual = 0, No Iterations 0
diagonal:  Solving for rhoE, Initial residual = 0, Final residual = 0, No Iterations 0
ExecutionTime = 6.59 s  ClockTime = 6 s

deltaT = 0.00149699
Mean and max Courant Numbers = 0.0691373 0.199801
Time = 0.113783

diagonal:  Solving for rho, Initial residual = 0, Final residual = 0, No Iterations 0
diagonal:  Solving for rhoUx, Initial residual = 0, Final residual = 0, No Iterations 0
diagonal:  Solving for rhoUy, Initial residual = 0, Final residual = 0, No Iterations 0
diagonal:  Solving for rhoE, Initial residual = 0, Final residual = 0, No Iterations 0
ExecutionTime = 6.67 s  ClockTime = 7 s

deltaT = 0.00149699
Mean and max Courant Numbers = 0.0691318 0.199755
Time = 0.11528

diagonal:  Solving for rho, Initial residual = 0, Final residual = 0, No Iterations 0
diagonal:  Solving for rhoUx, Initial residual = 0, Final residual = 0, No Iterations 0
diagonal:  Solving for rhoUy, Initial residual = 0, Final residual = 0, No Iterations 0
diagonal:  Solving for rhoE, Initial residual = 0, Final residual = 0, No Iterations 0
ExecutionTime = 6.75 s  ClockTime = 7 s

deltaT = 0.00149699
Mean and max Courant Numbers = 0.0691264 0.19971
Time = 0.116777

diagonal:  Solving for rho, Initial residual = 0, Final residual = 0, No Iterations 0
diagonal:  Solving for rhoUx, Initial residual = 0, Final residual = 0, No Iterations 0
diagonal:  Solving for rhoUy, Initial residual = 0, Final residual = 0, No Iterations 0
diagonal:  Solving for rhoE, Initial residual = 0, Final residual = 0, No Iterations 0
ExecutionTime = 6.84 s  ClockTime = 7 s

deltaT = 0.00149699
Mean and max Courant Numbers = 0.069121 0.199665
Time = 0.118274

diagonal:  Solving for rho, Initial residual = 0, Final residual = 0, No Iterations 0
diagonal:  Solving for rhoUx, Initial residual = 0, Final residual = 0, No Iterations 0
diagonal:  Solving for rhoUy, Initial residual = 0, Final residual = 0, No Iterations 0
diagonal:  Solving for rhoE, Initial residual = 0, Final residual = 0, No Iterations 0
ExecutionTime = 6.92 s  ClockTime = 7 s

deltaT = 0.00149699
Mean and max Courant Numbers = 0.0691157 0.19962
Time = 0.119771

diagonal:  Solving for rho, Initial residual = 0, Final residual = 0, No Iterations 0
diagonal:  Solving for rhoUx, Initial residual = 0, Final residual = 0, No Iterations 0
diagonal:  Solving for rhoUy, Initial residual = 0, Final residual = 0, No Iterations 0
diagonal:  Solving for rhoE, Initial residual = 0, Final residual = 0, No Iterations 0
ExecutionTime = 7 s  ClockTime = 7 s

deltaT = 0.00149954
Mean and max Courant Numbers = 0.0692283 0.199916
Time = 0.121271

diagonal:  Solving for rho, Initial residual = 0, Final residual = 0, No Iterations 0
diagonal:  Solving for rhoUx, Initial residual = 0, Final residual = 0, No Iterations 0
diagonal:  Solving for rhoUy, Initial residual = 0, Final residual = 0, No Iterations 0
diagonal:  Solving for rhoE, Initial residual = 0, Final residual = 0, No Iterations 0
ExecutionTime = 7.08 s  ClockTime = 7 s

deltaT = 0.00149954
Mean and max Courant Numbers = 0.0692231 0.199872
Time = 0.12277

diagonal:  Solving for rho, Initial residual = 0, Final residual = 0, No Iterations 0
diagonal:  Solving for rhoUx, Initial residual = 0, Final residual = 0, No Iterations 0
diagonal:  Solving for rhoUy, Initial residual = 0, Final residual = 0, No Iterations 0
diagonal:  Solving for rhoE, Initial residual = 0, Final residual = 0, No Iterations 0
ExecutionTime = 7.16 s  ClockTime = 7 s

deltaT = 0.00149954
Mean and max Courant Numbers = 0.069218 0.199829
Time = 0.12427

diagonal:  Solving for rho, Initial residual = 0, Final residual = 0, No Iterations 0
diagonal:  Solving for rhoUx, Initial residual = 0, Final residual = 0, No Iterations 0
diagonal:  Solving for rhoUy, Initial residual = 0, Final residual = 0, No Iterations 0
diagonal:  Solving for rhoE, Initial residual = 0, Final residual = 0, No Iterations 0
ExecutionTime = 7.24 s  ClockTime = 7 s

deltaT = 0.00149954
Mean and max Courant Numbers = 0.069213 0.199786
Time = 0.125769

diagonal:  Solving for rho, Initial residual = 0, Final residual = 0, No Iterations 0
diagonal:  Solving for rhoUx, Initial residual = 0, Final residual = 0, No Iterations 0
diagonal:  Solving for rhoUy, Initial residual = 0, Final residual = 0, No Iterations 0
diagonal:  Solving for rhoE, Initial residual = 0, Final residual = 0, No Iterations 0
ExecutionTime = 7.33 s  ClockTime = 7 s

deltaT = 0.00149954
Mean and max Courant Numbers = 0.069208 0.199744
Time = 0.127269

diagonal:  Solving for rho, Initial residual = 0, Final residual = 0, No Iterations 0
diagonal:  Solving for rhoUx, Initial residual = 0, Final residual = 0, No Iterations 0
diagonal:  Solving for rhoUy, Initial residual = 0, Final residual = 0, No Iterations 0
diagonal:  Solving for rhoE, Initial residual = 0, Final residual = 0, No Iterations 0
ExecutionTime = 7.4 s  ClockTime = 7 s

deltaT = 0.00149954
Mean and max Courant Numbers = 0.0692031 0.199703
Time = 0.128768

diagonal:  Solving for rho, Initial residual = 0, Final residual = 0, No Iterations 0
diagonal:  Solving for rhoUx, Initial residual = 0, Final residual = 0, No Iterations 0
diagonal:  Solving for rhoUy, Initial residual = 0, Final residual = 0, No Iterations 0
diagonal:  Solving for rhoE, Initial residual = 0, Final residual = 0, No Iterations 0
ExecutionTime = 7.48 s  ClockTime = 7 s

deltaT = 0.00149954
Mean and max Courant Numbers = 0.0691983 0.199662
Time = 0.130268

diagonal:  Solving for rho, Initial residual = 0, Final residual = 0, No Iterations 0
diagonal:  Solving for rhoUx, Initial residual = 0, Final residual = 0, No Iterations 0
diagonal:  Solving for rhoUy, Initial residual = 0, Final residual = 0, No Iterations 0
diagonal:  Solving for rhoE, Initial residual = 0, Final residual = 0, No Iterations 0
ExecutionTime = 7.57 s  ClockTime = 7 s

deltaT = 0.00149954
Mean and max Courant Numbers = 0.0691936 0.199622
Time = 0.131767

diagonal:  Solving for rho, Initial residual = 0, Final residual = 0, No Iterations 0
diagonal:  Solving for rhoUx, Initial residual = 0, Final residual = 0, No Iterations 0
diagonal:  Solving for rhoUy, Initial residual = 0, Final residual = 0, No Iterations 0
diagonal:  Solving for rhoE, Initial residual = 0, Final residual = 0, No Iterations 0
ExecutionTime = 7.65 s  ClockTime = 8 s

deltaT = 0.00150213
Mean and max Courant Numbers = 0.0693086 0.199927
Time = 0.133269

diagonal:  Solving for rho, Initial residual = 0, Final residual = 0, No Iterations 0
diagonal:  Solving for rhoUx, Initial residual = 0, Final residual = 0, No Iterations 0
diagonal:  Solving for rhoUy, Initial residual = 0, Final residual = 0, No Iterations 0
diagonal:  Solving for rhoE, Initial residual = 0, Final residual = 0, No Iterations 0
ExecutionTime = 7.72 s  ClockTime = 8 s

deltaT = 0.00150213
Mean and max Courant Numbers = 0.069304 0.199888
Time = 0.134772

diagonal:  Solving for rho, Initial residual = 0, Final residual = 0, No Iterations 0
diagonal:  Solving for rhoUx, Initial residual = 0, Final residual = 0, No Iterations 0
diagonal:  Solving for rhoUy, Initial residual = 0, Final residual = 0, No Iterations 0
diagonal:  Solving for rhoE, Initial residual = 0, Final residual = 0, No Iterations 0
ExecutionTime = 7.81 s  ClockTime = 8 s

deltaT = 0.00150213
Mean and max Courant Numbers = 0.0692994 0.19985
Time = 0.136274

diagonal:  Solving for rho, Initial residual = 0, Final residual = 0, No Iterations 0
diagonal:  Solving for rhoUx, Initial residual = 0, Final residual = 0, No Iterations 0
diagonal:  Solving for rhoUy, Initial residual = 0, Final residual = 0, No Iterations 0
diagonal:  Solving for rhoE, Initial residual = 0, Final residual = 0, No Iterations 0
ExecutionTime = 7.89 s  ClockTime = 8 s

deltaT = 0.00150213
Mean and max Courant Numbers = 0.0692949 0.199812
Time = 0.137776

diagonal:  Solving for rho, Initial residual = 0, Final residual = 0, No Iterations 0
diagonal:  Solving for rhoUx, Initial residual = 0, Final residual = 0, No Iterations 0
diagonal:  Solving for rhoUy, Initial residual = 0, Final residual = 0, No Iterations 0
diagonal:  Solving for rhoE, Initial residual = 0, Final residual = 0, No Iterations 0
ExecutionTime = 7.97 s  ClockTime = 8 s

deltaT = 0.00150213
Mean and max Courant Numbers = 0.0692905 0.199775
Time = 0.139278

diagonal:  Solving for rho, Initial residual = 0, Final residual = 0, No Iterations 0
diagonal:  Solving for rhoUx, Initial residual = 0, Final residual = 0, No Iterations 0
diagonal:  Solving for rhoUy, Initial residual = 0, Final residual = 0, No Iterations 0
diagonal:  Solving for rhoE, Initial residual = 0, Final residual = 0, No Iterations 0
ExecutionTime = 8.05 s  ClockTime = 8 s

deltaT = 0.00150213
Mean and max Courant Numbers = 0.0692861 0.199739
Time = 0.14078

diagonal:  Solving for rho, Initial residual = 0, Final residual = 0, No Iterations 0
diagonal:  Solving for rhoUx, Initial residual = 0, Final residual = 0, No Iterations 0
diagonal:  Solving for rhoUy, Initial residual = 0, Final residual = 0, No Iterations 0
diagonal:  Solving for rhoE, Initial residual = 0, Final residual = 0, No Iterations 0
ExecutionTime = 8.13 s  ClockTime = 8 s

deltaT = 0.00150213
Mean and max Courant Numbers = 0.0692818 0.199704
Time = 0.142282

diagonal:  Solving for rho, Initial residual = 0, Final residual = 0, No Iterations 0
diagonal:  Solving for rhoUx, Initial residual = 0, Final residual = 0, No Iterations 0
diagonal:  Solving for rhoUy, Initial residual = 0, Final residual = 0, No Iterations 0
diagonal:  Solving for rhoE, Initial residual = 0, Final residual = 0, No Iterations 0
ExecutionTime = 8.21 s  ClockTime = 8 s

deltaT = 0.00150213
Mean and max Courant Numbers = 0.0692775 0.19967
Time = 0.143784

diagonal:  Solving for rho, Initial residual = 0, Final residual = 0, No Iterations 0
diagonal:  Solving for rhoUx, Initial residual = 0, Final residual = 0, No Iterations 0
diagonal:  Solving for rhoUy, Initial residual = 0, Final residual = 0, No Iterations 0
diagonal:  Solving for rhoE, Initial residual = 0, Final residual = 0, No Iterations 0
ExecutionTime = 8.29 s  ClockTime = 8 s

deltaT = 0.00150213
Mean and max Courant Numbers = 0.0692732 0.199636
Time = 0.145287

diagonal:  Solving for rho, Initial residual = 0, Final residual = 0, No Iterations 0
diagonal:  Solving for rhoUx, Initial residual = 0, Final residual = 0, No Iterations 0
diagonal:  Solving for rhoUy, Initial residual = 0, Final residual = 0, No Iterations 0
diagonal:  Solving for rhoE, Initial residual = 0, Final residual = 0, No Iterations 0
ExecutionTime = 8.37 s  ClockTime = 8 s

deltaT = 0.00150478
Mean and max Courant Numbers = 0.0693909 0.199956
Time = 0.146791

diagonal:  Solving for rho, Initial residual = 0, Final residual = 0, No Iterations 0
diagonal:  Solving for rhoUx, Initial residual = 0, Final residual = 0, No Iterations 0
diagonal:  Solving for rhoUy, Initial residual = 0, Final residual = 0, No Iterations 0
diagonal:  Solving for rhoE, Initial residual = 0, Final residual = 0, No Iterations 0
ExecutionTime = 8.45 s  ClockTime = 8 s

deltaT = 0.00150478
Mean and max Courant Numbers = 0.0693867 0.199925
Time = 0.148296

diagonal:  Solving for rho, Initial residual = 0, Final residual = 0, No Iterations 0
diagonal:  Solving for rhoUx, Initial residual = 0, Final residual = 0, No Iterations 0
diagonal:  Solving for rhoUy, Initial residual = 0, Final residual = 0, No Iterations 0
diagonal:  Solving for rhoE, Initial residual = 0, Final residual = 0, No Iterations 0
ExecutionTime = 8.53 s  ClockTime = 8 s

deltaT = 0.00150478
Mean and max Courant Numbers = 0.0693823 0.199895
Time = 0.149801

diagonal:  Solving for rho, Initial residual = 0, Final residual = 0, No Iterations 0
diagonal:  Solving for rhoUx, Initial residual = 0, Final residual = 0, No Iterations 0
diagonal:  Solving for rhoUy, Initial residual = 0, Final residual = 0, No Iterations 0
diagonal:  Solving for rhoE, Initial residual = 0, Final residual = 0, No Iterations 0
ExecutionTime = 8.61 s  ClockTime = 9 s

deltaT = 0.00150478
Mean and max Courant Numbers = 0.0693781 0.199866
Time = 0.151306

diagonal:  Solving for rho, Initial residual = 0, Final residual = 0, No Iterations 0
diagonal:  Solving for rhoUx, Initial residual = 0, Final residual = 0, No Iterations 0
diagonal:  Solving for rhoUy, Initial residual = 0, Final residual = 0, No Iterations 0
diagonal:  Solving for rhoE, Initial residual = 0, Final residual = 0, No Iterations 0
ExecutionTime = 8.69 s  ClockTime = 9 s

deltaT = 0.00150478
Mean and max Courant Numbers = 0.0693738 0.19984
Time = 0.15281

diagonal:  Solving for rho, Initial residual = 0, Final residual = 0, No Iterations 0
diagonal:  Solving for rhoUx, Initial residual = 0, Final residual = 0, No Iterations 0
diagonal:  Solving for rhoUy, Initial residual = 0, Final residual = 0, No Iterations 0
diagonal:  Solving for rhoE, Initial residual = 0, Final residual = 0, No Iterations 0
ExecutionTime = 8.78 s  ClockTime = 9 s

deltaT = 0.00150478
Mean and max Courant Numbers = 0.0693695 0.199814
Time = 0.154315

diagonal:  Solving for rho, Initial residual = 0, Final residual = 0, No Iterations 0
diagonal:  Solving for rhoUx, Initial residual = 0, Final residual = 0, No Iterations 0
diagonal:  Solving for rhoUy, Initial residual = 0, Final residual = 0, No Iterations 0
diagonal:  Solving for rhoE, Initial residual = 0, Final residual = 0, No Iterations 0
ExecutionTime = 8.85 s  ClockTime = 9 s

deltaT = 0.00150478
Mean and max Courant Numbers = 0.0693652 0.199791
Time = 0.15582

diagonal:  Solving for rho, Initial residual = 0, Final residual = 0, No Iterations 0
diagonal:  Solving for rhoUx, Initial residual = 0, Final residual = 0, No Iterations 0
diagonal:  Solving for rhoUy, Initial residual = 0, Final residual = 0, No Iterations 0
diagonal:  Solving for rhoE, Initial residual = 0, Final residual = 0, No Iterations 0
ExecutionTime = 8.94 s  ClockTime = 9 s

deltaT = 0.00150478
Mean and max Courant Numbers = 0.0693608 0.19977
Time = 0.157325

diagonal:  Solving for rho, Initial residual = 0, Final residual = 0, No Iterations 0
diagonal:  Solving for rhoUx, Initial residual = 0, Final residual = 0, No Iterations 0
diagonal:  Solving for rhoUy, Initial residual = 0, Final residual = 0, No Iterations 0
diagonal:  Solving for rhoE, Initial residual = 0, Final residual = 0, No Iterations 0
ExecutionTime = 9.02 s  ClockTime = 9 s

deltaT = 0.00150478
Mean and max Courant Numbers = 0.0693564 0.199751
Time = 0.15883

diagonal:  Solving for rho, Initial residual = 0, Final residual = 0, No Iterations 0
diagonal:  Solving for rhoUx, Initial residual = 0, Final residual = 0, No Iterations 0
diagonal:  Solving for rhoUy, Initial residual = 0, Final residual = 0, No Iterations 0
diagonal:  Solving for rhoE, Initial residual = 0, Final residual = 0, No Iterations 0
ExecutionTime = 9.1 s  ClockTime = 9 s

deltaT = 0.00150478
Mean and max Courant Numbers = 0.069352 0.199733
Time = 0.160334

diagonal:  Solving for rho, Initial residual = 0, Final residual = 0, No Iterations 0
diagonal:  Solving for rhoUx, Initial residual = 0, Final residual = 0, No Iterations 0
diagonal:  Solving for rhoUy, Initial residual = 0, Final residual = 0, No Iterations 0
diagonal:  Solving for rhoE, Initial residual = 0, Final residual = 0, No Iterations 0
ExecutionTime = 9.18 s  ClockTime = 9 s

deltaT = 0.00150478
Mean and max Courant Numbers = 0.0693475 0.199719
Time = 0.161839

diagonal:  Solving for rho, Initial residual = 0, Final residual = 0, No Iterations 0
diagonal:  Solving for rhoUx, Initial residual = 0, Final residual = 0, No Iterations 0
diagonal:  Solving for rhoUy, Initial residual = 0, Final residual = 0, No Iterations 0
diagonal:  Solving for rhoE, Initial residual = 0, Final residual = 0, No Iterations 0
ExecutionTime = 9.27 s  ClockTime = 9 s

deltaT = 0.00150478
Mean and max Courant Numbers = 0.0693431 0.199706
Time = 0.163344

diagonal:  Solving for rho, Initial residual = 0, Final residual = 0, No Iterations 0
diagonal:  Solving for rhoUx, Initial residual = 0, Final residual = 0, No Iterations 0
diagonal:  Solving for rhoUy, Initial residual = 0, Final residual = 0, No Iterations 0
diagonal:  Solving for rhoE, Initial residual = 0, Final residual = 0, No Iterations 0
ExecutionTime = 9.34 s  ClockTime = 9 s

deltaT = 0.00150478
Mean and max Courant Numbers = 0.0693387 0.199696
Time = 0.164849

diagonal:  Solving for rho, Initial residual = 0, Final residual = 0, No Iterations 0
diagonal:  Solving for rhoUx, Initial residual = 0, Final residual = 0, No Iterations 0
diagonal:  Solving for rhoUy, Initial residual = 0, Final residual = 0, No Iterations 0
diagonal:  Solving for rhoE, Initial residual = 0, Final residual = 0, No Iterations 0
ExecutionTime = 9.42 s  ClockTime = 9 s

deltaT = 0.00150478
Mean and max Courant Numbers = 0.0693342 0.199689
Time = 0.166353

diagonal:  Solving for rho, Initial residual = 0, Final residual = 0, No Iterations 0
diagonal:  Solving for rhoUx, Initial residual = 0, Final residual = 0, No Iterations 0
diagonal:  Solving for rhoUy, Initial residual = 0, Final residual = 0, No Iterations 0
diagonal:  Solving for rhoE, Initial residual = 0, Final residual = 0, No Iterations 0
ExecutionTime = 9.51 s  ClockTime = 9 s

deltaT = 0.00150478
Mean and max Courant Numbers = 0.0693297 0.199685
Time = 0.167858

diagonal:  Solving for rho, Initial residual = 0, Final residual = 0, No Iterations 0
diagonal:  Solving for rhoUx, Initial residual = 0, Final residual = 0, No Iterations 0
diagonal:  Solving for rhoUy, Initial residual = 0, Final residual = 0, No Iterations 0
diagonal:  Solving for rhoE, Initial residual = 0, Final residual = 0, No Iterations 0
ExecutionTime = 9.58 s  ClockTime = 9 s

deltaT = 0.00150478
Mean and max Courant Numbers = 0.0693253 0.199682
Time = 0.169363

diagonal:  Solving for rho, Initial residual = 0, Final residual = 0, No Iterations 0
diagonal:  Solving for rhoUx, Initial residual = 0, Final residual = 0, No Iterations 0
diagonal:  Solving for rhoUy, Initial residual = 0, Final residual = 0, No Iterations 0
diagonal:  Solving for rhoE, Initial residual = 0, Final residual = 0, No Iterations 0
ExecutionTime = 9.67 s  ClockTime = 10 s

deltaT = 0.00150478
Mean and max Courant Numbers = 0.0693209 0.199682
Time = 0.170868

diagonal:  Solving for rho, Initial residual = 0, Final residual = 0, No Iterations 0
diagonal:  Solving for rhoUx, Initial residual = 0, Final residual = 0, No Iterations 0
diagonal:  Solving for rhoUy, Initial residual = 0, Final residual = 0, No Iterations 0
diagonal:  Solving for rhoE, Initial residual = 0, Final residual = 0, No Iterations 0
ExecutionTime = 9.75 s  ClockTime = 10 s

deltaT = 0.00150478
Mean and max Courant Numbers = 0.0693164 0.199683
Time = 0.172373

diagonal:  Solving for rho, Initial residual = 0, Final residual = 0, No Iterations 0
diagonal:  Solving for rhoUx, Initial residual = 0, Final residual = 0, No Iterations 0
diagonal:  Solving for rhoUy, Initial residual = 0, Final residual = 0, No Iterations 0
diagonal:  Solving for rhoE, Initial residual = 0, Final residual = 0, No Iterations 0
ExecutionTime = 9.83 s  ClockTime = 10 s

deltaT = 0.00150478
Mean and max Courant Numbers = 0.069312 0.199685
Time = 0.173877

diagonal:  Solving for rho, Initial residual = 0, Final residual = 0, No Iterations 0
diagonal:  Solving for rhoUx, Initial residual = 0, Final residual = 0, No Iterations 0
diagonal:  Solving for rhoUy, Initial residual = 0, Final residual = 0, No Iterations 0
diagonal:  Solving for rhoE, Initial residual = 0, Final residual = 0, No Iterations 0
ExecutionTime = 9.91 s  ClockTime = 10 s

deltaT = 0.00150478
Mean and max Courant Numbers = 0.0693076 0.199688
Time = 0.175382

diagonal:  Solving for rho, Initial residual = 0, Final residual = 0, No Iterations 0
diagonal:  Solving for rhoUx, Initial residual = 0, Final residual = 0, No Iterations 0
diagonal:  Solving for rhoUy, Initial residual = 0, Final residual = 0, No Iterations 0
diagonal:  Solving for rhoE, Initial residual = 0, Final residual = 0, No Iterations 0
ExecutionTime = 9.99 s  ClockTime = 10 s

deltaT = 0.00150478
Mean and max Courant Numbers = 0.0693031 0.199692
Time = 0.176887

diagonal:  Solving for rho, Initial residual = 0, Final residual = 0, No Iterations 0
diagonal:  Solving for rhoUx, Initial residual = 0, Final residual = 0, No Iterations 0
diagonal:  Solving for rhoUy, Initial residual = 0, Final residual = 0, No Iterations 0
diagonal:  Solving for rhoE, Initial residual = 0, Final residual = 0, No Iterations 0
ExecutionTime = 10.08 s  ClockTime = 10 s

deltaT = 0.00150478
Mean and max Courant Numbers = 0.0692986 0.199696
Time = 0.178392

diagonal:  Solving for rho, Initial residual = 0, Final residual = 0, No Iterations 0
diagonal:  Solving for rhoUx, Initial residual = 0, Final residual = 0, No Iterations 0
diagonal:  Solving for rhoUy, Initial residual = 0, Final residual = 0, No Iterations 0
diagonal:  Solving for rhoE, Initial residual = 0, Final residual = 0, No Iterations 0
ExecutionTime = 10.16 s  ClockTime = 10 s

deltaT = 0.00150478
Mean and max Courant Numbers = 0.0692941 0.199701
Time = 0.179896

diagonal:  Solving for rho, Initial residual = 0, Final residual = 0, No Iterations 0
diagonal:  Solving for rhoUx, Initial residual = 0, Final residual = 0, No Iterations 0
diagonal:  Solving for rhoUy, Initial residual = 0, Final residual = 0, No Iterations 0
diagonal:  Solving for rhoE, Initial residual = 0, Final residual = 0, No Iterations 0
ExecutionTime = 10.24 s  ClockTime = 10 s

deltaT = 0.00150478
Mean and max Courant Numbers = 0.0692896 0.199706
Time = 0.181401

diagonal:  Solving for rho, Initial residual = 0, Final residual = 0, No Iterations 0
diagonal:  Solving for rhoUx, Initial residual = 0, Final residual = 0, No Iterations 0
diagonal:  Solving for rhoUy, Initial residual = 0, Final residual = 0, No Iterations 0
diagonal:  Solving for rhoE, Initial residual = 0, Final residual = 0, No Iterations 0
ExecutionTime = 10.32 s  ClockTime = 10 s

deltaT = 0.00150478
Mean and max Courant Numbers = 0.0692851 0.199712
Time = 0.182906

diagonal:  Solving for rho, Initial residual = 0, Final residual = 0, No Iterations 0
diagonal:  Solving for rhoUx, Initial residual = 0, Final residual = 0, No Iterations 0
diagonal:  Solving for rhoUy, Initial residual = 0, Final residual = 0, No Iterations 0
diagonal:  Solving for rhoE, Initial residual = 0, Final residual = 0, No Iterations 0
ExecutionTime = 10.41 s  ClockTime = 10 s

deltaT = 0.00150478
Mean and max Courant Numbers = 0.0692806 0.199718
Time = 0.184411

diagonal:  Solving for rho, Initial residual = 0, Final residual = 0, No Iterations 0
diagonal:  Solving for rhoUx, Initial residual = 0, Final residual = 0, No Iterations 0
diagonal:  Solving for rhoUy, Initial residual = 0, Final residual = 0, No Iterations 0
diagonal:  Solving for rhoE, Initial residual = 0, Final residual = 0, No Iterations 0
ExecutionTime = 10.49 s  ClockTime = 10 s

deltaT = 0.00150478
Mean and max Courant Numbers = 0.0692762 0.199725
Time = 0.185916

diagonal:  Solving for rho, Initial residual = 0, Final residual = 0, No Iterations 0
diagonal:  Solving for rhoUx, Initial residual = 0, Final residual = 0, No Iterations 0
diagonal:  Solving for rhoUy, Initial residual = 0, Final residual = 0, No Iterations 0
diagonal:  Solving for rhoE, Initial residual = 0, Final residual = 0, No Iterations 0
ExecutionTime = 10.57 s  ClockTime = 10 s

deltaT = 0.00150478
Mean and max Courant Numbers = 0.0692717 0.199726
Time = 0.18742

diagonal:  Solving for rho, Initial residual = 0, Final residual = 0, No Iterations 0
diagonal:  Solving for rhoUx, Initial residual = 0, Final residual = 0, No Iterations 0
diagonal:  Solving for rhoUy, Initial residual = 0, Final residual = 0, No Iterations 0
diagonal:  Solving for rhoE, Initial residual = 0, Final residual = 0, No Iterations 0
ExecutionTime = 10.65 s  ClockTime = 11 s

deltaT = 0.00150478
Mean and max Courant Numbers = 0.0692674 0.199718
Time = 0.188925

diagonal:  Solving for rho, Initial residual = 0, Final residual = 0, No Iterations 0
diagonal:  Solving for rhoUx, Initial residual = 0, Final residual = 0, No Iterations 0
diagonal:  Solving for rhoUy, Initial residual = 0, Final residual = 0, No Iterations 0
diagonal:  Solving for rhoE, Initial residual = 0, Final residual = 0, No Iterations 0
ExecutionTime = 10.73 s  ClockTime = 11 s

deltaT = 0.00150478
Mean and max Courant Numbers = 0.069263 0.199708
Time = 0.19043

diagonal:  Solving for rho, Initial residual = 0, Final residual = 0, No Iterations 0
diagonal:  Solving for rhoUx, Initial residual = 0, Final residual = 0, No Iterations 0
diagonal:  Solving for rhoUy, Initial residual = 0, Final residual = 0, No Iterations 0
diagonal:  Solving for rhoE, Initial residual = 0, Final residual = 0, No Iterations 0
ExecutionTime = 10.82 s  ClockTime = 11 s

deltaT = 0.00150478
Mean and max Courant Numbers = 0.0692586 0.199697
Time = 0.191935

diagonal:  Solving for rho, Initial residual = 0, Final residual = 0, No Iterations 0
diagonal:  Solving for rhoUx, Initial residual = 0, Final residual = 0, No Iterations 0
diagonal:  Solving for rhoUy, Initial residual = 0, Final residual = 0, No Iterations 0
diagonal:  Solving for rhoE, Initial residual = 0, Final residual = 0, No Iterations 0
ExecutionTime = 10.9 s  ClockTime = 11 s

deltaT = 0.00150478
Mean and max Courant Numbers = 0.0692543 0.199686
Time = 0.193439

diagonal:  Solving for rho, Initial residual = 0, Final residual = 0, No Iterations 0
diagonal:  Solving for rhoUx, Initial residual = 0, Final residual = 0, No Iterations 0
diagonal:  Solving for rhoUy, Initial residual = 0, Final residual = 0, No Iterations 0
diagonal:  Solving for rhoE, Initial residual = 0, Final residual = 0, No Iterations 0
ExecutionTime = 10.98 s  ClockTime = 11 s

deltaT = 0.00150478
Mean and max Courant Numbers = 0.06925 0.199675
Time = 0.194944

diagonal:  Solving for rho, Initial residual = 0, Final residual = 0, No Iterations 0
diagonal:  Solving for rhoUx, Initial residual = 0, Final residual = 0, No Iterations 0
diagonal:  Solving for rhoUy, Initial residual = 0, Final residual = 0, No Iterations 0
diagonal:  Solving for rhoE, Initial residual = 0, Final residual = 0, No Iterations 0
ExecutionTime = 11.06 s  ClockTime = 11 s

deltaT = 0.00150478
Mean and max Courant Numbers = 0.0692457 0.199673
Time = 0.196449

diagonal:  Solving for rho, Initial residual = 0, Final residual = 0, No Iterations 0
diagonal:  Solving for rhoUx, Initial residual = 0, Final residual = 0, No Iterations 0
diagonal:  Solving for rhoUy, Initial residual = 0, Final residual = 0, No Iterations 0
diagonal:  Solving for rhoE, Initial residual = 0, Final residual = 0, No Iterations 0
ExecutionTime = 11.14 s  ClockTime = 11 s

deltaT = 0.00150478
Mean and max Courant Numbers = 0.0692414 0.199679
Time = 0.197954

diagonal:  Solving for rho, Initial residual = 0, Final residual = 0, No Iterations 0
diagonal:  Solving for rhoUx, Initial residual = 0, Final residual = 0, No Iterations 0
diagonal:  Solving for rhoUy, Initial residual = 0, Final residual = 0, No Iterations 0
diagonal:  Solving for rhoE, Initial residual = 0, Final residual = 0, No Iterations 0
ExecutionTime = 11.22 s  ClockTime = 11 s

deltaT = 0.00150478
Mean and max Courant Numbers = 0.0692372 0.19969
Time = 0.199459

diagonal:  Solving for rho, Initial residual = 0, Final residual = 0, No Iterations 0
diagonal:  Solving for rhoUx, Initial residual = 0, Final residual = 0, No Iterations 0
diagonal:  Solving for rhoUy, Initial residual = 0, Final residual = 0, No Iterations 0
diagonal:  Solving for rhoE, Initial residual = 0, Final residual = 0, No Iterations 0
ExecutionTime = 11.31 s  ClockTime = 11 s

deltaT = 0.00150478
Mean and max Courant Numbers = 0.0692331 0.199704
Time = 0.200963

diagonal:  Solving for rho, Initial residual = 0, Final residual = 0, No Iterations 0
diagonal:  Solving for rhoUx, Initial residual = 0, Final residual = 0, No Iterations 0
diagonal:  Solving for rhoUy, Initial residual = 0, Final residual = 0, No Iterations 0
diagonal:  Solving for rhoE, Initial residual = 0, Final residual = 0, No Iterations 0
ExecutionTime = 11.39 s  ClockTime = 11 s

deltaT = 0.00150478
Mean and max Courant Numbers = 0.069229 0.199722
Time = 0.202468

diagonal:  Solving for rho, Initial residual = 0, Final residual = 0, No Iterations 0
diagonal:  Solving for rhoUx, Initial residual = 0, Final residual = 0, No Iterations 0
diagonal:  Solving for rhoUy, Initial residual = 0, Final residual = 0, No Iterations 0
diagonal:  Solving for rhoE, Initial residual = 0, Final residual = 0, No Iterations 0
ExecutionTime = 11.48 s  ClockTime = 11 s

deltaT = 0.00150478
Mean and max Courant Numbers = 0.0692249 0.199742
Time = 0.203973

diagonal:  Solving for rho, Initial residual = 0, Final residual = 0, No Iterations 0
diagonal:  Solving for rhoUx, Initial residual = 0, Final residual = 0, No Iterations 0
diagonal:  Solving for rhoUy, Initial residual = 0, Final residual = 0, No Iterations 0
diagonal:  Solving for rhoE, Initial residual = 0, Final residual = 0, No Iterations 0
ExecutionTime = 11.57 s  ClockTime = 11 s

deltaT = 0.00150478
Mean and max Courant Numbers = 0.0692208 0.199765
Time = 0.205478

diagonal:  Solving for rho, Initial residual = 0, Final residual = 0, No Iterations 0
diagonal:  Solving for rhoUx, Initial residual = 0, Final residual = 0, No Iterations 0
diagonal:  Solving for rhoUy, Initial residual = 0, Final residual = 0, No Iterations 0
diagonal:  Solving for rhoE, Initial residual = 0, Final residual = 0, No Iterations 0
ExecutionTime = 11.65 s  ClockTime = 12 s

deltaT = 0.00150478
Mean and max Courant Numbers = 0.0692168 0.19979
Time = 0.206982

diagonal:  Solving for rho, Initial residual = 0, Final residual = 0, No Iterations 0
diagonal:  Solving for rhoUx, Initial residual = 0, Final residual = 0, No Iterations 0
diagonal:  Solving for rhoUy, Initial residual = 0, Final residual = 0, No Iterations 0
diagonal:  Solving for rhoE, Initial residual = 0, Final residual = 0, No Iterations 0
ExecutionTime = 11.73 s  ClockTime = 12 s

deltaT = 0.00150478
Mean and max Courant Numbers = 0.0692128 0.199816
Time = 0.208487

diagonal:  Solving for rho, Initial residual = 0, Final residual = 0, No Iterations 0
diagonal:  Solving for rhoUx, Initial residual = 0, Final residual = 0, No Iterations 0
diagonal:  Solving for rhoUy, Initial residual = 0, Final residual = 0, No Iterations 0
diagonal:  Solving for rhoE, Initial residual = 0, Final residual = 0, No Iterations 0
ExecutionTime = 11.82 s  ClockTime = 12 s

deltaT = 0.00150478
Mean and max Courant Numbers = 0.0692088 0.199844
Time = 0.209992

diagonal:  Solving for rho, Initial residual = 0, Final residual = 0, No Iterations 0
diagonal:  Solving for rhoUx, Initial residual = 0, Final residual = 0, No Iterations 0
diagonal:  Solving for rhoUy, Initial residual = 0, Final residual = 0, No Iterations 0
diagonal:  Solving for rhoE, Initial residual = 0, Final residual = 0, No Iterations 0
ExecutionTime = 11.9 s  ClockTime = 12 s

deltaT = 0.00150478
Mean and max Courant Numbers = 0.0692049 0.199872
Time = 0.211497

diagonal:  Solving for rho, Initial residual = 0, Final residual = 0, No Iterations 0
diagonal:  Solving for rhoUx, Initial residual = 0, Final residual = 0, No Iterations 0
diagonal:  Solving for rhoUy, Initial residual = 0, Final residual = 0, No Iterations 0
diagonal:  Solving for rhoE, Initial residual = 0, Final residual = 0, No Iterations 0
ExecutionTime = 12 s  ClockTime = 12 s

deltaT = 0.00150478
Mean and max Courant Numbers = 0.0692009 0.1999
Time = 0.213002

diagonal:  Solving for rho, Initial residual = 0, Final residual = 0, No Iterations 0
diagonal:  Solving for rhoUx, Initial residual = 0, Final residual = 0, No Iterations 0
diagonal:  Solving for rhoUy, Initial residual = 0, Final residual = 0, No Iterations 0
diagonal:  Solving for rhoE, Initial residual = 0, Final residual = 0, No Iterations 0
ExecutionTime = 12.08 s  ClockTime = 12 s

deltaT = 0.00150478
Mean and max Courant Numbers = 0.0691971 0.199929
Time = 0.214506

diagonal:  Solving for rho, Initial residual = 0, Final residual = 0, No Iterations 0
diagonal:  Solving for rhoUx, Initial residual = 0, Final residual = 0, No Iterations 0
diagonal:  Solving for rhoUy, Initial residual = 0, Final residual = 0, No Iterations 0
diagonal:  Solving for rhoE, Initial residual = 0, Final residual = 0, No Iterations 0
ExecutionTime = 12.17 s  ClockTime = 12 s

deltaT = 0.00150478
Mean and max Courant Numbers = 0.0691932 0.199957
Time = 0.216011

diagonal:  Solving for rho, Initial residual = 0, Final residual = 0, No Iterations 0
diagonal:  Solving for rhoUx, Initial residual = 0, Final residual = 0, No Iterations 0
diagonal:  Solving for rhoUy, Initial residual = 0, Final residual = 0, No Iterations 0
diagonal:  Solving for rhoE, Initial residual = 0, Final residual = 0, No Iterations 0
ExecutionTime = 12.25 s  ClockTime = 12 s

deltaT = 0.00150478
Mean and max Courant Numbers = 0.0691894 0.199985
Time = 0.217516

diagonal:  Solving for rho, Initial residual = 0, Final residual = 0, No Iterations 0
diagonal:  Solving for rhoUx, Initial residual = 0, Final residual = 0, No Iterations 0
diagonal:  Solving for rhoUy, Initial residual = 0, Final residual = 0, No Iterations 0
diagonal:  Solving for rhoE, Initial residual = 0, Final residual = 0, No Iterations 0
ExecutionTime = 12.33 s  ClockTime = 12 s

deltaT = 0.00150478
Mean and max Courant Numbers = 0.0691856 0.200012
Time = 0.219021

diagonal:  Solving for rho, Initial residual = 0, Final residual = 0, No Iterations 0
diagonal:  Solving for rhoUx, Initial residual = 0, Final residual = 0, No Iterations 0
diagonal:  Solving for rhoUy, Initial residual = 0, Final residual = 0, No Iterations 0
diagonal:  Solving for rhoE, Initial residual = 0, Final residual = 0, No Iterations 0
ExecutionTime = 12.42 s  ClockTime = 12 s

deltaT = 0.00150188
Mean and max Courant Numbers = 0.0690488 0.199654
Time = 0.220523

diagonal:  Solving for rho, Initial residual = 0, Final residual = 0, No Iterations 0
diagonal:  Solving for rhoUx, Initial residual = 0, Final residual = 0, No Iterations 0
diagonal:  Solving for rhoUy, Initial residual = 0, Final residual = 0, No Iterations 0
diagonal:  Solving for rhoE, Initial residual = 0, Final residual = 0, No Iterations 0
ExecutionTime = 12.5 s  ClockTime = 12 s

deltaT = 0.00150188
Mean and max Courant Numbers = 0.069045 0.19968
Time = 0.222024

diagonal:  Solving for rho, Initial residual = 0, Final residual = 0, No Iterations 0
diagonal:  Solving for rhoUx, Initial residual = 0, Final residual = 0, No Iterations 0
diagonal:  Solving for rhoUy, Initial residual = 0, Final residual = 0, No Iterations 0
diagonal:  Solving for rhoE, Initial residual = 0, Final residual = 0, No Iterations 0
ExecutionTime = 12.58 s  ClockTime = 12 s

deltaT = 0.00150188
Mean and max Courant Numbers = 0.0690413 0.199705
Time = 0.223526

diagonal:  Solving for rho, Initial residual = 0, Final residual = 0, No Iterations 0
diagonal:  Solving for rhoUx, Initial residual = 0, Final residual = 0, No Iterations 0
diagonal:  Solving for rhoUy, Initial residual = 0, Final residual = 0, No Iterations 0
diagonal:  Solving for rhoE, Initial residual = 0, Final residual = 0, No Iterations 0
ExecutionTime = 12.68 s  ClockTime = 13 s

deltaT = 0.00150188
Mean and max Courant Numbers = 0.0690376 0.199729
Time = 0.225028

diagonal:  Solving for rho, Initial residual = 0, Final residual = 0, No Iterations 0
diagonal:  Solving for rhoUx, Initial residual = 0, Final residual = 0, No Iterations 0
diagonal:  Solving for rhoUy, Initial residual = 0, Final residual = 0, No Iterations 0
diagonal:  Solving for rhoE, Initial residual = 0, Final residual = 0, No Iterations 0
ExecutionTime = 12.76 s  ClockTime = 13 s

deltaT = 0.00150188
Mean and max Courant Numbers = 0.0690339 0.199752
Time = 0.22653

diagonal:  Solving for rho, Initial residual = 0, Final residual = 0, No Iterations 0
diagonal:  Solving for rhoUx, Initial residual = 0, Final residual = 0, No Iterations 0
diagonal:  Solving for rhoUy, Initial residual = 0, Final residual = 0, No Iterations 0
diagonal:  Solving for rhoE, Initial residual = 0, Final residual = 0, No Iterations 0
ExecutionTime = 12.85 s  ClockTime = 13 s

deltaT = 0.00150188
Mean and max Courant Numbers = 0.0690302 0.199774
Time = 0.228032

diagonal:  Solving for rho, Initial residual = 0, Final residual = 0, No Iterations 0
diagonal:  Solving for rhoUx, Initial residual = 0, Final residual = 0, No Iterations 0
diagonal:  Solving for rhoUy, Initial residual = 0, Final residual = 0, No Iterations 0
diagonal:  Solving for rhoE, Initial residual = 0, Final residual = 0, No Iterations 0
ExecutionTime = 12.93 s  ClockTime = 13 s

deltaT = 0.00150188
Mean and max Courant Numbers = 0.0690266 0.199795
Time = 0.229534

diagonal:  Solving for rho, Initial residual = 0, Final residual = 0, No Iterations 0
diagonal:  Solving for rhoUx, Initial residual = 0, Final residual = 0, No Iterations 0
diagonal:  Solving for rhoUy, Initial residual = 0, Final residual = 0, No Iterations 0
diagonal:  Solving for rhoE, Initial residual = 0, Final residual = 0, No Iterations 0
ExecutionTime = 13.02 s  ClockTime = 13 s

deltaT = 0.00150188
Mean and max Courant Numbers = 0.0690231 0.199815
Time = 0.231036

diagonal:  Solving for rho, Initial residual = 0, Final residual = 0, No Iterations 0
diagonal:  Solving for rhoUx, Initial residual = 0, Final residual = 0, No Iterations 0
diagonal:  Solving for rhoUy, Initial residual = 0, Final residual = 0, No Iterations 0
diagonal:  Solving for rhoE, Initial residual = 0, Final residual = 0, No Iterations 0
ExecutionTime = 13.11 s  ClockTime = 13 s

deltaT = 0.00150188
Mean and max Courant Numbers = 0.0690195 0.199833
Time = 0.232538

diagonal:  Solving for rho, Initial residual = 0, Final residual = 0, No Iterations 0
diagonal:  Solving for rhoUx, Initial residual = 0, Final residual = 0, No Iterations 0
diagonal:  Solving for rhoUy, Initial residual = 0, Final residual = 0, No Iterations 0
diagonal:  Solving for rhoE, Initial residual = 0, Final residual = 0, No Iterations 0
ExecutionTime = 13.2 s  ClockTime = 13 s

deltaT = 0.00150188
Mean and max Courant Numbers = 0.0690159 0.199851
Time = 0.234039

diagonal:  Solving for rho, Initial residual = 0, Final residual = 0, No Iterations 0
diagonal:  Solving for rhoUx, Initial residual = 0, Final residual = 0, No Iterations 0
diagonal:  Solving for rhoUy, Initial residual = 0, Final residual = 0, No Iterations 0
diagonal:  Solving for rhoE, Initial residual = 0, Final residual = 0, No Iterations 0
ExecutionTime = 13.28 s  ClockTime = 13 s

deltaT = 0.00150188
Mean and max Courant Numbers = 0.0690124 0.199867
Time = 0.235541

diagonal:  Solving for rho, Initial residual = 0, Final residual = 0, No Iterations 0
diagonal:  Solving for rhoUx, Initial residual = 0, Final residual = 0, No Iterations 0
diagonal:  Solving for rhoUy, Initial residual = 0, Final residual = 0, No Iterations 0
diagonal:  Solving for rhoE, Initial residual = 0, Final residual = 0, No Iterations 0
ExecutionTime = 13.37 s  ClockTime = 13 s

deltaT = 0.00150188
Mean and max Courant Numbers = 0.0690089 0.199882
Time = 0.237043

diagonal:  Solving for rho, Initial residual = 0, Final residual = 0, No Iterations 0
diagonal:  Solving for rhoUx, Initial residual = 0, Final residual = 0, No Iterations 0
diagonal:  Solving for rhoUy, Initial residual = 0, Final residual = 0, No Iterations 0
diagonal:  Solving for rhoE, Initial residual = 0, Final residual = 0, No Iterations 0
ExecutionTime = 13.45 s  ClockTime = 13 s

deltaT = 0.00150188
Mean and max Courant Numbers = 0.0690054 0.199896
Time = 0.238545

diagonal:  Solving for rho, Initial residual = 0, Final residual = 0, No Iterations 0
diagonal:  Solving for rhoUx, Initial residual = 0, Final residual = 0, No Iterations 0
diagonal:  Solving for rhoUy, Initial residual = 0, Final residual = 0, No Iterations 0
diagonal:  Solving for rhoE, Initial residual = 0, Final residual = 0, No Iterations 0
ExecutionTime = 13.53 s  ClockTime = 13 s

deltaT = 0.00150188
Mean and max Courant Numbers = 0.069002 0.199909
Time = 0.240047

diagonal:  Solving for rho, Initial residual = 0, Final residual = 0, No Iterations 0
diagonal:  Solving for rhoUx, Initial residual = 0, Final residual = 0, No Iterations 0
diagonal:  Solving for rhoUy, Initial residual = 0, Final residual = 0, No Iterations 0
diagonal:  Solving for rhoE, Initial residual = 0, Final residual = 0, No Iterations 0
ExecutionTime = 13.62 s  ClockTime = 14 s

deltaT = 0.00150188
Mean and max Courant Numbers = 0.0689985 0.199921
Time = 0.241549

diagonal:  Solving for rho, Initial residual = 0, Final residual = 0, No Iterations 0
diagonal:  Solving for rhoUx, Initial residual = 0, Final residual = 0, No Iterations 0
diagonal:  Solving for rhoUy, Initial residual = 0, Final residual = 0, No Iterations 0
diagonal:  Solving for rhoE, Initial residual = 0, Final residual = 0, No Iterations 0
ExecutionTime = 13.7 s  ClockTime = 14 s

deltaT = 0.00150188
Mean and max Courant Numbers = 0.0689951 0.199932
Time = 0.243051

diagonal:  Solving for rho, Initial residual = 0, Final residual = 0, No Iterations 0
diagonal:  Solving for rhoUx, Initial residual = 0, Final residual = 0, No Iterations 0
diagonal:  Solving for rhoUy, Initial residual = 0, Final residual = 0, No Iterations 0
diagonal:  Solving for rhoE, Initial residual = 0, Final residual = 0, No Iterations 0
ExecutionTime = 13.78 s  ClockTime = 14 s

deltaT = 0.00150188
Mean and max Courant Numbers = 0.0689917 0.199942
Time = 0.244553

diagonal:  Solving for rho, Initial residual = 0, Final residual = 0, No Iterations 0
diagonal:  Solving for rhoUx, Initial residual = 0, Final residual = 0, No Iterations 0
diagonal:  Solving for rhoUy, Initial residual = 0, Final residual = 0, No Iterations 0
diagonal:  Solving for rhoE, Initial residual = 0, Final residual = 0, No Iterations 0
ExecutionTime = 13.87 s  ClockTime = 14 s

deltaT = 0.00150188
Mean and max Courant Numbers = 0.0689883 0.19995
Time = 0.246055

diagonal:  Solving for rho, Initial residual = 0, Final residual = 0, No Iterations 0
diagonal:  Solving for rhoUx, Initial residual = 0, Final residual = 0, No Iterations 0
diagonal:  Solving for rhoUy, Initial residual = 0, Final residual = 0, No Iterations 0
diagonal:  Solving for rhoE, Initial residual = 0, Final residual = 0, No Iterations 0
ExecutionTime = 13.95 s  ClockTime = 14 s

deltaT = 0.00150188
Mean and max Courant Numbers = 0.0689849 0.199958
Time = 0.247556

diagonal:  Solving for rho, Initial residual = 0, Final residual = 0, No Iterations 0
[...]
diagonal:  Solving for rhoUx, Initial residual = 0, Final residual = 0, No Iterations 0
diagonal:  Solving for rhoUy, Initial residual = 0, Final residual = 0, No Iterations 0
diagonal:  Solving for rhoE, Initial residual = 0, Final residual = 0, No Iterations 0
ExecutionTime = 569.48 s  ClockTime = 570 s

deltaT = 0.00143292
Mean and max Courant Numbers = 0.0648841 0.198934
Time = 9.94268

diagonal:  Solving for rho, Initial residual = 0, Final residual = 0, No Iterations 0
diagonal:  Solving for rhoUx, Initial residual = 0, Final residual = 0, No Iterations 0
diagonal:  Solving for rhoUy, Initial residual = 0, Final residual = 0, No Iterations 0
diagonal:  Solving for rhoE, Initial residual = 0, Final residual = 0, No Iterations 0
ExecutionTime = 569.56 s  ClockTime = 570 s

deltaT = 0.00143292
Mean and max Courant Numbers = 0.064884 0.198938
Time = 9.94412

diagonal:  Solving for rho, Initial residual = 0, Final residual = 0, No Iterations 0
diagonal:  Solving for rhoUx, Initial residual = 0, Final residual = 0, No Iterations 0
diagonal:  Solving for rhoUy, Initial residual = 0, Final residual = 0, No Iterations 0
diagonal:  Solving for rhoE, Initial residual = 0, Final residual = 0, No Iterations 0
ExecutionTime = 569.64 s  ClockTime = 570 s

deltaT = 0.00143292
Mean and max Courant Numbers = 0.064884 0.198944
Time = 9.94555

diagonal:  Solving for rho, Initial residual = 0, Final residual = 0, No Iterations 0
diagonal:  Solving for rhoUx, Initial residual = 0, Final residual = 0, No Iterations 0
diagonal:  Solving for rhoUy, Initial residual = 0, Final residual = 0, No Iterations 0
diagonal:  Solving for rhoE, Initial residual = 0, Final residual = 0, No Iterations 0
ExecutionTime = 569.73 s  ClockTime = 570 s

deltaT = 0.00143292
Mean and max Courant Numbers = 0.064884 0.198949
Time = 9.94698

diagonal:  Solving for rho, Initial residual = 0, Final residual = 0, No Iterations 0
diagonal:  Solving for rhoUx, Initial residual = 0, Final residual = 0, No Iterations 0
diagonal:  Solving for rhoUy, Initial residual = 0, Final residual = 0, No Iterations 0
diagonal:  Solving for rhoE, Initial residual = 0, Final residual = 0, No Iterations 0
ExecutionTime = 569.81 s  ClockTime = 570 s

deltaT = 0.00143292
Mean and max Courant Numbers = 0.0648839 0.198952
Time = 9.94841

diagonal:  Solving for rho, Initial residual = 0, Final residual = 0, No Iterations 0
diagonal:  Solving for rhoUx, Initial residual = 0, Final residual = 0, No Iterations 0
diagonal:  Solving for rhoUy, Initial residual = 0, Final residual = 0, No Iterations 0
diagonal:  Solving for rhoE, Initial residual = 0, Final residual = 0, No Iterations 0
ExecutionTime = 569.89 s  ClockTime = 570 s

deltaT = 0.00143292
Mean and max Courant Numbers = 0.0648839 0.198952
Time = 9.94985

diagonal:  Solving for rho, Initial residual = 0, Final residual = 0, No Iterations 0
diagonal:  Solving for rhoUx, Initial residual = 0, Final residual = 0, No Iterations 0
diagonal:  Solving for rhoUy, Initial residual = 0, Final residual = 0, No Iterations 0
diagonal:  Solving for rhoE, Initial residual = 0, Final residual = 0, No Iterations 0
ExecutionTime = 569.97 s  ClockTime = 570 s

deltaT = 0.00143292
Mean and max Courant Numbers = 0.0648838 0.19895
Time = 9.95128

diagonal:  Solving for rho, Initial residual = 0, Final residual = 0, No Iterations 0
diagonal:  Solving for rhoUx, Initial residual = 0, Final residual = 0, No Iterations 0
diagonal:  Solving for rhoUy, Initial residual = 0, Final residual = 0, No Iterations 0
diagonal:  Solving for rhoE, Initial residual = 0, Final residual = 0, No Iterations 0
ExecutionTime = 570.05 s  ClockTime = 570 s

deltaT = 0.00143292
Mean and max Courant Numbers = 0.0648838 0.198941
Time = 9.95271

diagonal:  Solving for rho, Initial residual = 0, Final residual = 0, No Iterations 0
diagonal:  Solving for rhoUx, Initial residual = 0, Final residual = 0, No Iterations 0
diagonal:  Solving for rhoUy, Initial residual = 0, Final residual = 0, No Iterations 0
diagonal:  Solving for rhoE, Initial residual = 0, Final residual = 0, No Iterations 0
ExecutionTime = 570.14 s  ClockTime = 570 s

deltaT = 0.00143292
Mean and max Courant Numbers = 0.0648838 0.19892
Time = 9.95415

diagonal:  Solving for rho, Initial residual = 0, Final residual = 0, No Iterations 0
diagonal:  Solving for rhoUx, Initial residual = 0, Final residual = 0, No Iterations 0
diagonal:  Solving for rhoUy, Initial residual = 0, Final residual = 0, No Iterations 0
diagonal:  Solving for rhoE, Initial residual = 0, Final residual = 0, No Iterations 0
ExecutionTime = 570.21 s  ClockTime = 570 s

deltaT = 0.00143292
Mean and max Courant Numbers = 0.0648838 0.198894
Time = 9.95558

diagonal:  Solving for rho, Initial residual = 0, Final residual = 0, No Iterations 0
diagonal:  Solving for rhoUx, Initial residual = 0, Final residual = 0, No Iterations 0
diagonal:  Solving for rhoUy, Initial residual = 0, Final residual = 0, No Iterations 0
diagonal:  Solving for rhoE, Initial residual = 0, Final residual = 0, No Iterations 0
ExecutionTime = 570.29 s  ClockTime = 570 s

deltaT = 0.00143292
Mean and max Courant Numbers = 0.0648838 0.198865
Time = 9.95701

diagonal:  Solving for rho, Initial residual = 0, Final residual = 0, No Iterations 0
diagonal:  Solving for rhoUx, Initial residual = 0, Final residual = 0, No Iterations 0
diagonal:  Solving for rhoUy, Initial residual = 0, Final residual = 0, No Iterations 0
diagonal:  Solving for rhoE, Initial residual = 0, Final residual = 0, No Iterations 0
ExecutionTime = 570.38 s  ClockTime = 571 s

deltaT = 0.00143292
Mean and max Courant Numbers = 0.0648838 0.198832
Time = 9.95845

diagonal:  Solving for rho, Initial residual = 0, Final residual = 0, No Iterations 0
diagonal:  Solving for rhoUx, Initial residual = 0, Final residual = 0, No Iterations 0
diagonal:  Solving for rhoUy, Initial residual = 0, Final residual = 0, No Iterations 0
diagonal:  Solving for rhoE, Initial residual = 0, Final residual = 0, No Iterations 0
ExecutionTime = 570.46 s  ClockTime = 571 s

deltaT = 0.00143292
Mean and max Courant Numbers = 0.0648838 0.198796
Time = 9.95988

diagonal:  Solving for rho, Initial residual = 0, Final residual = 0, No Iterations 0
diagonal:  Solving for rhoUx, Initial residual = 0, Final residual = 0, No Iterations 0
diagonal:  Solving for rhoUy, Initial residual = 0, Final residual = 0, No Iterations 0
diagonal:  Solving for rhoE, Initial residual = 0, Final residual = 0, No Iterations 0
ExecutionTime = 570.54 s  ClockTime = 571 s

deltaT = 0.00143292
Mean and max Courant Numbers = 0.0648838 0.198758
Time = 9.96131

diagonal:  Solving for rho, Initial residual = 0, Final residual = 0, No Iterations 0
diagonal:  Solving for rhoUx, Initial residual = 0, Final residual = 0, No Iterations 0
diagonal:  Solving for rhoUy, Initial residual = 0, Final residual = 0, No Iterations 0
diagonal:  Solving for rhoE, Initial residual = 0, Final residual = 0, No Iterations 0
ExecutionTime = 570.62 s  ClockTime = 571 s

deltaT = 0.00143292
Mean and max Courant Numbers = 0.0648837 0.198719
Time = 9.96274

diagonal:  Solving for rho, Initial residual = 0, Final residual = 0, No Iterations 0
diagonal:  Solving for rhoUx, Initial residual = 0, Final residual = 0, No Iterations 0
diagonal:  Solving for rhoUy, Initial residual = 0, Final residual = 0, No Iterations 0
diagonal:  Solving for rhoE, Initial residual = 0, Final residual = 0, No Iterations 0
ExecutionTime = 570.7 s  ClockTime = 571 s

deltaT = 0.00143292
Mean and max Courant Numbers = 0.0648837 0.198679
Time = 9.96418

diagonal:  Solving for rho, Initial residual = 0, Final residual = 0, No Iterations 0
diagonal:  Solving for rhoUx, Initial residual = 0, Final residual = 0, No Iterations 0
diagonal:  Solving for rhoUy, Initial residual = 0, Final residual = 0, No Iterations 0
diagonal:  Solving for rhoE, Initial residual = 0, Final residual = 0, No Iterations 0
ExecutionTime = 570.78 s  ClockTime = 571 s

deltaT = 0.00143292
Mean and max Courant Numbers = 0.0648836 0.198639
Time = 9.96561

diagonal:  Solving for rho, Initial residual = 0, Final residual = 0, No Iterations 0
diagonal:  Solving for rhoUx, Initial residual = 0, Final residual = 0, No Iterations 0
diagonal:  Solving for rhoUy, Initial residual = 0, Final residual = 0, No Iterations 0
diagonal:  Solving for rhoE, Initial residual = 0, Final residual = 0, No Iterations 0
ExecutionTime = 570.86 s  ClockTime = 571 s

deltaT = 0.00143292
Mean and max Courant Numbers = 0.0648836 0.198597
Time = 9.96704

diagonal:  Solving for rho, Initial residual = 0, Final residual = 0, No Iterations 0
diagonal:  Solving for rhoUx, Initial residual = 0, Final residual = 0, No Iterations 0
diagonal:  Solving for rhoUy, Initial residual = 0, Final residual = 0, No Iterations 0
diagonal:  Solving for rhoE, Initial residual = 0, Final residual = 0, No Iterations 0
ExecutionTime = 570.95 s  ClockTime = 571 s

deltaT = 0.00143292
Mean and max Courant Numbers = 0.0648836 0.198554
Time = 9.96848

diagonal:  Solving for rho, Initial residual = 0, Final residual = 0, No Iterations 0
diagonal:  Solving for rhoUx, Initial residual = 0, Final residual = 0, No Iterations 0
diagonal:  Solving for rhoUy, Initial residual = 0, Final residual = 0, No Iterations 0
diagonal:  Solving for rhoE, Initial residual = 0, Final residual = 0, No Iterations 0
ExecutionTime = 571.03 s  ClockTime = 571 s

deltaT = 0.00143292
Mean and max Courant Numbers = 0.0648836 0.198509
Time = 9.96991

diagonal:  Solving for rho, Initial residual = 0, Final residual = 0, No Iterations 0
diagonal:  Solving for rhoUx, Initial residual = 0, Final residual = 0, No Iterations 0
diagonal:  Solving for rhoUy, Initial residual = 0, Final residual = 0, No Iterations 0
diagonal:  Solving for rhoE, Initial residual = 0, Final residual = 0, No Iterations 0
ExecutionTime = 571.11 s  ClockTime = 571 s

deltaT = 0.00143292
Mean and max Courant Numbers = 0.0648835 0.198464
Time = 9.97134

diagonal:  Solving for rho, Initial residual = 0, Final residual = 0, No Iterations 0
diagonal:  Solving for rhoUx, Initial residual = 0, Final residual = 0, No Iterations 0
diagonal:  Solving for rhoUy, Initial residual = 0, Final residual = 0, No Iterations 0
diagonal:  Solving for rhoE, Initial residual = 0, Final residual = 0, No Iterations 0
ExecutionTime = 571.19 s  ClockTime = 571 s

deltaT = 0.00143292
Mean and max Courant Numbers = 0.0648835 0.19842
Time = 9.97277

diagonal:  Solving for rho, Initial residual = 0, Final residual = 0, No Iterations 0
diagonal:  Solving for rhoUx, Initial residual = 0, Final residual = 0, No Iterations 0
diagonal:  Solving for rhoUy, Initial residual = 0, Final residual = 0, No Iterations 0
diagonal:  Solving for rhoE, Initial residual = 0, Final residual = 0, No Iterations 0
ExecutionTime = 571.27 s  ClockTime = 571 s

deltaT = 0.00143292
Mean and max Courant Numbers = 0.0648835 0.198376
Time = 9.97421

diagonal:  Solving for rho, Initial residual = 0, Final residual = 0, No Iterations 0
diagonal:  Solving for rhoUx, Initial residual = 0, Final residual = 0, No Iterations 0
diagonal:  Solving for rhoUy, Initial residual = 0, Final residual = 0, No Iterations 0
diagonal:  Solving for rhoE, Initial residual = 0, Final residual = 0, No Iterations 0
ExecutionTime = 571.35 s  ClockTime = 571 s

deltaT = 0.00143292
Mean and max Courant Numbers = 0.0648836 0.198332
Time = 9.97564

diagonal:  Solving for rho, Initial residual = 0, Final residual = 0, No Iterations 0
diagonal:  Solving for rhoUx, Initial residual = 0, Final residual = 0, No Iterations 0
diagonal:  Solving for rhoUy, Initial residual = 0, Final residual = 0, No Iterations 0
diagonal:  Solving for rhoE, Initial residual = 0, Final residual = 0, No Iterations 0
ExecutionTime = 571.43 s  ClockTime = 572 s

deltaT = 0.00143292
Mean and max Courant Numbers = 0.0648837 0.19829
Time = 9.97707

diagonal:  Solving for rho, Initial residual = 0, Final residual = 0, No Iterations 0
diagonal:  Solving for rhoUx, Initial residual = 0, Final residual = 0, No Iterations 0
diagonal:  Solving for rhoUy, Initial residual = 0, Final residual = 0, No Iterations 0
diagonal:  Solving for rhoE, Initial residual = 0, Final residual = 0, No Iterations 0
ExecutionTime = 571.52 s  ClockTime = 572 s

deltaT = 0.00143292
Mean and max Courant Numbers = 0.0648838 0.198249
Time = 9.97851

diagonal:  Solving for rho, Initial residual = 0, Final residual = 0, No Iterations 0
diagonal:  Solving for rhoUx, Initial residual = 0, Final residual = 0, No Iterations 0
diagonal:  Solving for rhoUy, Initial residual = 0, Final residual = 0, No Iterations 0
diagonal:  Solving for rhoE, Initial residual = 0, Final residual = 0, No Iterations 0
ExecutionTime = 571.6 s  ClockTime = 572 s

deltaT = 0.00143292
Mean and max Courant Numbers = 0.0648839 0.198209
Time = 9.97994

diagonal:  Solving for rho, Initial residual = 0, Final residual = 0, No Iterations 0
diagonal:  Solving for rhoUx, Initial residual = 0, Final residual = 0, No Iterations 0
diagonal:  Solving for rhoUy, Initial residual = 0, Final residual = 0, No Iterations 0
diagonal:  Solving for rhoE, Initial residual = 0, Final residual = 0, No Iterations 0
ExecutionTime = 571.68 s  ClockTime = 572 s

deltaT = 0.00143292
Mean and max Courant Numbers = 0.0648839 0.19817
Time = 9.98137

diagonal:  Solving for rho, Initial residual = 0, Final residual = 0, No Iterations 0
diagonal:  Solving for rhoUx, Initial residual = 0, Final residual = 0, No Iterations 0
diagonal:  Solving for rhoUy, Initial residual = 0, Final residual = 0, No Iterations 0
diagonal:  Solving for rhoE, Initial residual = 0, Final residual = 0, No Iterations 0
ExecutionTime = 571.75 s  ClockTime = 572 s

deltaT = 0.00143292
Mean and max Courant Numbers = 0.064884 0.198131
Time = 9.9828

diagonal:  Solving for rho, Initial residual = 0, Final residual = 0, No Iterations 0
diagonal:  Solving for rhoUx, Initial residual = 0, Final residual = 0, No Iterations 0
diagonal:  Solving for rhoUy, Initial residual = 0, Final residual = 0, No Iterations 0
diagonal:  Solving for rhoE, Initial residual = 0, Final residual = 0, No Iterations 0
ExecutionTime = 571.84 s  ClockTime = 572 s

deltaT = 0.00143292
Mean and max Courant Numbers = 0.064884 0.198097
Time = 9.98424

diagonal:  Solving for rho, Initial residual = 0, Final residual = 0, No Iterations 0
diagonal:  Solving for rhoUx, Initial residual = 0, Final residual = 0, No Iterations 0
diagonal:  Solving for rhoUy, Initial residual = 0, Final residual = 0, No Iterations 0
diagonal:  Solving for rhoE, Initial residual = 0, Final residual = 0, No Iterations 0
ExecutionTime = 571.92 s  ClockTime = 572 s

deltaT = 0.00143292
Mean and max Courant Numbers = 0.064884 0.198063
Time = 9.98567

diagonal:  Solving for rho, Initial residual = 0, Final residual = 0, No Iterations 0
diagonal:  Solving for rhoUx, Initial residual = 0, Final residual = 0, No Iterations 0
diagonal:  Solving for rhoUy, Initial residual = 0, Final residual = 0, No Iterations 0
diagonal:  Solving for rhoE, Initial residual = 0, Final residual = 0, No Iterations 0
ExecutionTime = 572.01 s  ClockTime = 572 s

deltaT = 0.00143292
Mean and max Courant Numbers = 0.0648839 0.198028
Time = 9.9871

diagonal:  Solving for rho, Initial residual = 0, Final residual = 0, No Iterations 0
diagonal:  Solving for rhoUx, Initial residual = 0, Final residual = 0, No Iterations 0
diagonal:  Solving for rhoUy, Initial residual = 0, Final residual = 0, No Iterations 0
diagonal:  Solving for rhoE, Initial residual = 0, Final residual = 0, No Iterations 0
ExecutionTime = 572.08 s  ClockTime = 572 s

deltaT = 0.00143292
Mean and max Courant Numbers = 0.0648839 0.197992
Time = 9.98854

diagonal:  Solving for rho, Initial residual = 0, Final residual = 0, No Iterations 0
diagonal:  Solving for rhoUx, Initial residual = 0, Final residual = 0, No Iterations 0
diagonal:  Solving for rhoUy, Initial residual = 0, Final residual = 0, No Iterations 0
diagonal:  Solving for rhoE, Initial residual = 0, Final residual = 0, No Iterations 0
ExecutionTime = 572.16 s  ClockTime = 572 s

deltaT = 0.00143292
Mean and max Courant Numbers = 0.0648839 0.197958
Time = 9.98997

diagonal:  Solving for rho, Initial residual = 0, Final residual = 0, No Iterations 0
diagonal:  Solving for rhoUx, Initial residual = 0, Final residual = 0, No Iterations 0
diagonal:  Solving for rhoUy, Initial residual = 0, Final residual = 0, No Iterations 0
diagonal:  Solving for rhoE, Initial residual = 0, Final residual = 0, No Iterations 0
ExecutionTime = 572.25 s  ClockTime = 572 s

deltaT = 0.00143292
Mean and max Courant Numbers = 0.0648839 0.197922
Time = 9.9914

diagonal:  Solving for rho, Initial residual = 0, Final residual = 0, No Iterations 0
diagonal:  Solving for rhoUx, Initial residual = 0, Final residual = 0, No Iterations 0
diagonal:  Solving for rhoUy, Initial residual = 0, Final residual = 0, No Iterations 0
diagonal:  Solving for rhoE, Initial residual = 0, Final residual = 0, No Iterations 0
ExecutionTime = 572.33 s  ClockTime = 572 s

deltaT = 0.00143292
Mean and max Courant Numbers = 0.0648839 0.197885
Time = 9.99284

diagonal:  Solving for rho, Initial residual = 0, Final residual = 0, No Iterations 0
diagonal:  Solving for rhoUx, Initial residual = 0, Final residual = 0, No Iterations 0
diagonal:  Solving for rhoUy, Initial residual = 0, Final residual = 0, No Iterations 0
diagonal:  Solving for rhoE, Initial residual = 0, Final residual = 0, No Iterations 0
ExecutionTime = 572.4 s  ClockTime = 573 s

deltaT = 0.00143292
Mean and max Courant Numbers = 0.0648839 0.197881
Time = 9.99427

diagonal:  Solving for rho, Initial residual = 0, Final residual = 0, No Iterations 0
diagonal:  Solving for rhoUx, Initial residual = 0, Final residual = 0, No Iterations 0
diagonal:  Solving for rhoUy, Initial residual = 0, Final residual = 0, No Iterations 0
diagonal:  Solving for rhoE, Initial residual = 0, Final residual = 0, No Iterations 0
ExecutionTime = 572.49 s  ClockTime = 573 s

deltaT = 0.00143292
Mean and max Courant Numbers = 0.0648839 0.197884
Time = 9.9957

diagonal:  Solving for rho, Initial residual = 0, Final residual = 0, No Iterations 0
diagonal:  Solving for rhoUx, Initial residual = 0, Final residual = 0, No Iterations 0
diagonal:  Solving for rhoUy, Initial residual = 0, Final residual = 0, No Iterations 0
diagonal:  Solving for rhoE, Initial residual = 0, Final residual = 0, No Iterations 0
ExecutionTime = 572.57 s  ClockTime = 573 s

deltaT = 0.00143292
Mean and max Courant Numbers = 0.0648839 0.197889
Time = 9.99713

diagonal:  Solving for rho, Initial residual = 0, Final residual = 0, No Iterations 0
diagonal:  Solving for rhoUx, Initial residual = 0, Final residual = 0, No Iterations 0
diagonal:  Solving for rhoUy, Initial residual = 0, Final residual = 0, No Iterations 0
diagonal:  Solving for rhoE, Initial residual = 0, Final residual = 0, No Iterations 0
ExecutionTime = 572.65 s  ClockTime = 573 s

deltaT = 0.00143292
Mean and max Courant Numbers = 0.0648839 0.197898
Time = 9.99857

diagonal:  Solving for rho, Initial residual = 0, Final residual = 0, No Iterations 0
diagonal:  Solving for rhoUx, Initial residual = 0, Final residual = 0, No Iterations 0
diagonal:  Solving for rhoUy, Initial residual = 0, Final residual = 0, No Iterations 0
diagonal:  Solving for rhoE, Initial residual = 0, Final residual = 0, No Iterations 0
ExecutionTime = 572.73 s  ClockTime = 573 s

deltaT = 0.00143292
Mean and max Courant Numbers = 0.0648839 0.197902
Time = 10

diagonal:  Solving for rho, Initial residual = 0, Final residual = 0, No Iterations 0
diagonal:  Solving for rhoUx, Initial residual = 0, Final residual = 0, No Iterations 0
diagonal:  Solving for rhoUy, Initial residual = 0, Final residual = 0, No Iterations 0
diagonal:  Solving for rhoE, Initial residual = 0, Final residual = 0, No Iterations 0
ExecutionTime = 573.07 s  ClockTime = 573 s

End

