/*---------------------------------------------------------------------------*\
  =========                 |
  \\      /  F ield         | OpenFOAM: The Open Source CFD Toolbox
   \\    /   O peration     | Website:  https://openfoam.org
    \\  /    A nd           | Version:  7
     \\/     M anipulation  |
\*---------------------------------------------------------------------------*/
Build  : 7-49b2b3b8b082
Exec   : blockMesh
Date   : May 09 2022
Time   : 22:06:19
Host   : "c469-001.stampede2.tacc.utexas.edu"
PID    : 227115
I/O    : uncollated
Case   : /work2/07674/bradenp/stampede2/diamond-airfoil/simulations/unorganized/test_new_mesh3
nProcs : 1
sigFpe : Enabling floating point exception trapping (FOAM_SIGFPE).
fileModificationChecking : Monitoring run-time modified files using timeStampMaster (fileModificationSkew 10)
allowSystemOperations : Allowing user-supplied system call operations

// * * * * * * * * * * * * * * * * * * * * * * * * * * * * * * * * * * * * * //
Create time

Creating block mesh from
    "/work2/07674/bradenp/stampede2/diamond-airfoil/simulations/unorganized/test_new_mesh3/system/blockMeshDict"
No non-linear block edges defined
No non-planar block faces defined
Creating topology blocks
Creating topology patches

Creating block mesh topology
--> FOAM Warning : 
    From function Foam::polyMesh::polyMesh(const Foam::IOobject &, Foam::Field<Foam::Vector<double>> &&, const Foam::List<Foam::cellShape> &, const Foam::List<Foam::List<Foam::face>> &, const Foam::List<Foam::word> &, const Foam::PtrList<Foam::dictionary> &, const Foam::word &, const Foam::word &, bool)
    in file meshes/polyMesh/polyMeshFromShapeMesh.C at line 873
    Found 24 undefined faces in mesh; adding to default patch.

Check topology

	Basic statistics
		Number of internal faces : 12
		Number of boundary faces : 48
		Number of defined boundary faces : 48
		Number of undefined boundary faces : 0
	Checking patch -> block consistency

Creating block offsets
Creating merge list .

Creating polyMesh from blockMesh
Creating points with scale 1
    Block 0 cell size :
        i : 0.00268781 .. 0.134391
        j : 0.0156283 .. 0.312566
        k : 0.1
    Block 1 cell size :
        i : 0.0156283 .. 0.312566 0.0156236 .. 0.312473 0.0156283 .. 0.312566 0.0156236 .. 0.312473 
        j : 0.00384097 .. 0.0384097 0.00383825 .. 0.0383825 0.00384097 .. 0.0384097 0.00383825 .. 0.0383825 
        k : 0.1
    Block 2 cell size :
        i : 0.239225 .. 0.0119613 0.239319 .. 0.0119659 0.239225 .. 0.0119613 0.239319 .. 0.0119659 
        j : 0.00311878 .. 0.0311878 0.00312018 .. 0.0312018 0.00311878 .. 0.0311878 0.00312018 .. 0.0312018 
        k : 0.1
    Block 3 cell size :
        i : 0.0119613 .. 0.239225 0.011958 .. 0.239159 0.0119613 .. 0.239225 0.011958 .. 0.239159 
        j : 0.00384097 .. 0.0384097 0.00383962 .. 0.0383962 0.00384097 .. 0.0384097 0.00383962 .. 0.0383962 
        k : 0.1
    Block 4 cell size :
        i : 0.18754 .. 0.00937698 0.187606 .. 0.00938028 0.18754 .. 0.00937698 0.187606 .. 0.00938028 
        j : 0.00350097 .. 0.0350097 0.00350159 .. 0.0350159 0.00350097 .. 0.0350097 0.00350159 .. 0.0350159 
        k : 0.1
    Block 5 cell size :
        i : 0.00268781 .. 0.134391
        j : 0.18754 .. 0.00937698
        k : 0.1
    Block 6 cell size :
        i : 0.00268781 .. 0.134391
        j : 0.0156283 .. 0.312566
        k : 0.1
    Block 7 cell size :
        i : 0.0156283 .. 0.312566 0.0156236 .. 0.312473 0.0156283 .. 0.312566 0.0156236 .. 0.312473 
        j : 0.00384097 .. 0.0384097 0.00383825 .. 0.0383825 0.00384097 .. 0.0384097 0.00383825 .. 0.0383825 
        k : 0.1
    Block 8 cell size :
        i : 0.239225 .. 0.0119613 0.239319 .. 0.0119659 0.239225 .. 0.0119613 0.239319 .. 0.0119659 
        j : 0.00311878 .. 0.0311878 0.00312018 .. 0.0312018 0.00311878 .. 0.0311878 0.00312018 .. 0.0312018 
        k : 0.1
    Block 9 cell size :
        i : 0.0119613 .. 0.239225 0.011958 .. 0.239159 0.0119613 .. 0.239225 0.011958 .. 0.239159 
        j : 0.00384097 .. 0.0384097 0.00383962 .. 0.0383962 0.00384097 .. 0.0384097 0.00383962 .. 0.0383962 
        k : 0.1
    Block 10 cell size :
        i : 0.18754 .. 0.00937698 0.187606 .. 0.00938028 0.18754 .. 0.00937698 0.187606 .. 0.00938028 
        j : 0.00350097 .. 0.0350097 0.00350159 .. 0.0350159 0.00350097 .. 0.0350097 0.00350159 .. 0.0350159 
        k : 0.1
    Block 11 cell size :
        i : 0.00268781 .. 0.134391
        j : 0.18754 .. 0.00937698
        k : 0.1
Creating cells
Creating patches

There are no merge patch pairs edges

Writing polyMesh
----------------
Mesh Information
----------------
  boundingBox: (-6 -6 -0.05) (6 6 0.05)
  nPoints: 182300
  nCells: 90000
  nFaces: 361150
  nInternalFaces: 178850
----------------
Patches
----------------
  patch 0 (start: 178850 size: 150) name: inlet
  patch 1 (start: 179000 size: 150) name: outlet
  patch 2 (start: 179150 size: 800) name: airfoil
  patch 3 (start: 179950 size: 600) name: top
  patch 4 (start: 180550 size: 600) name: bottom
  patch 5 (start: 181150 size: 180000) name: defaultFaces

End

