/*---------------------------------------------------------------------------*\
  =========                 |
  \\      /  F ield         | OpenFOAM: The Open Source CFD Toolbox
   \\    /   O peration     | Website:  https://openfoam.org
    \\  /    A nd           | Version:  7
     \\/     M anipulation  |
\*---------------------------------------------------------------------------*/
Build  : 7-49b2b3b8b082
Exec   : decomposePar
Date   : May 09 2022
Time   : 20:14:51
Host   : "c469-001.stampede2.tacc.utexas.edu"
PID    : 206027
I/O    : uncollated
Case   : /work2/07674/bradenp/stampede2/diamond-airfoil/simulations/unorganized/test_new_mesh2
nProcs : 1
sigFpe : Enabling floating point exception trapping (FOAM_SIGFPE).
fileModificationChecking : Monitoring run-time modified files using timeStampMaster (fileModificationSkew 10)
allowSystemOperations : Allowing user-supplied system call operations

// * * * * * * * * * * * * * * * * * * * * * * * * * * * * * * * * * * * * * //
Create time



Decomposing mesh region0

Create mesh

Calculating distribution of cells
 Foam::decompositionMethod::New 
{
    numberOfSubdomains 64;
    method          hierarchical;
    simpleCoeffs
    {
        n               ( 8 8 1 );
        delta           0.001;
    }
    hierarchicalCoeffs
    {
        n               ( 8 8 1 );
        delta           0.001;
        order           xyz;
    }
}

Selecting decompositionMethod hierarchical

Finished decomposition in 0.07 s

Calculating original mesh data

Distributing cells to processors

Distributing faces to processors

Distributing points to processors

Constructing processor meshes

Processor 0
    Number of cells = 937
    Number of faces shared with processor 1 = 13
    Number of faces shared with processor 8 = 76
    Number of processor patches = 2
    Number of processor faces = 89
    Number of boundary faces = 1961

Processor 1
    Number of cells = 937
    Number of faces shared with processor 0 = 13
    Number of faces shared with processor 2 = 11
    Number of faces shared with processor 9 = 79
    Number of faces shared with processor 10 = 3
    Number of processor patches = 4
    Number of processor faces = 106
    Number of boundary faces = 1952

Processor 2
    Number of cells = 937
    Number of faces shared with processor 1 = 11
    Number of faces shared with processor 3 = 8
    Number of faces shared with processor 10 = 86
    Number of faces shared with processor 11 = 6
    Number of processor patches = 4
    Number of processor faces = 111
    Number of boundary faces = 1957

Processor 3
    Number of cells = 937
    Number of faces shared with processor 2 = 8
    Number of faces shared with processor 4 = 9
    Number of faces shared with processor 11 = 108
    Number of processor patches = 3
    Number of processor faces = 125
    Number of boundary faces = 1981

Processor 4
    Number of cells = 937
    Number of faces shared with processor 3 = 9
    Number of faces shared with processor 5 = 11
    Number of faces shared with processor 11 = 10
    Number of faces shared with processor 12 = 48
    Number of faces shared with processor 13 = 7
    Number of faces shared with processor 19 = 1
    Number of faces shared with processor 21 = 5
    Number of faces shared with processor 29 = 2
    Number of processor patches = 8
    Number of processor faces = 93
    Number of boundary faces = 1917

Processor 5
    Number of cells = 937
    Number of faces shared with processor 4 = 11
    Number of faces shared with processor 6 = 13
    Number of faces shared with processor 13 = 74
    Number of faces shared with processor 14 = 5
    Number of processor patches = 4
    Number of processor faces = 103
    Number of boundary faces = 1941

Processor 6
    Number of cells = 937
    Number of faces shared with processor 5 = 13
    Number of faces shared with processor 7 = 14
    Number of faces shared with processor 14 = 75
    Number of processor patches = 3
    Number of processor faces = 102
    Number of boundary faces = 1946

Processor 7
    Number of cells = 937
    Number of faces shared with processor 6 = 14
    Number of faces shared with processor 15 = 76
    Number of processor patches = 2
    Number of processor faces = 90
    Number of boundary faces = 1962

Processor 8
    Number of cells = 937
    Number of faces shared with processor 0 = 76
    Number of faces shared with processor 9 = 11
    Number of faces shared with processor 16 = 76
    Number of faces shared with processor 17 = 2
    Number of processor patches = 4
    Number of processor faces = 165
    Number of boundary faces = 1887

Processor 9
    Number of cells = 937
    Number of faces shared with processor 1 = 79
    Number of faces shared with processor 8 = 11
    Number of faces shared with processor 10 = 4
    Number of faces shared with processor 17 = 81
    Number of faces shared with processor 18 = 5
    Number of faces shared with processor 26 = 4
    Number of processor patches = 6
    Number of processor faces = 184
    Number of boundary faces = 1874

Processor 10
    Number of cells = 937
    Number of faces shared with processor 1 = 3
    Number of faces shared with processor 2 = 86
    Number of faces shared with processor 9 = 4
    Number of faces shared with processor 11 = 1
    Number of faces shared with processor 18 = 98
    Number of faces shared with processor 19 = 7
    Number of faces shared with processor 27 = 4
    Number of faces shared with processor 35 = 4
    Number of faces shared with processor 43 = 3
    Number of processor patches = 9
    Number of processor faces = 210
    Number of boundary faces = 1874

Processor 11
    Number of cells = 937
    Number of faces shared with processor 2 = 6
    Number of faces shared with processor 3 = 108
    Number of faces shared with processor 4 = 10
    Number of faces shared with processor 10 = 1
    Number of faces shared with processor 19 = 111
    Number of processor patches = 5
    Number of processor faces = 236
    Number of boundary faces = 1874

Processor 12
    Number of cells = 937
    Number of faces shared with processor 4 = 48
    Number of faces shared with processor 19 = 10
    Number of faces shared with processor 20 = 42
    Number of faces shared with processor 27 = 5
    Number of faces shared with processor 29 = 6
    Number of faces shared with processor 37 = 19
    Number of processor patches = 6
    Number of processor faces = 130
    Number of boundary faces = 1890

Processor 13
    Number of cells = 937
    Number of faces shared with processor 4 = 7
    Number of faces shared with processor 5 = 74
    Number of faces shared with processor 14 = 6
    Number of faces shared with processor 21 = 91
    Number of faces shared with processor 22 = 8
    Number of faces shared with processor 30 = 9
    Number of faces shared with processor 38 = 1
    Number of processor patches = 7
    Number of processor faces = 196
    Number of boundary faces = 1874

Processor 14
    Number of cells = 937
    Number of faces shared with processor 5 = 5
    Number of faces shared with processor 6 = 75
    Number of faces shared with processor 13 = 6
    Number of faces shared with processor 15 = 12
    Number of faces shared with processor 22 = 76
    Number of faces shared with processor 23 = 2
    Number of processor patches = 6
    Number of processor faces = 176
    Number of boundary faces = 1874

Processor 15
    Number of cells = 937
    Number of faces shared with processor 7 = 76
    Number of faces shared with processor 14 = 12
    Number of faces shared with processor 23 = 76
    Number of processor patches = 3
    Number of processor faces = 164
    Number of boundary faces = 1886

Processor 16
    Number of cells = 937
    Number of faces shared with processor 8 = 76
    Number of faces shared with processor 17 = 9
    Number of faces shared with processor 24 = 76
    Number of faces shared with processor 25 = 3
    Number of processor patches = 4
    Number of processor faces = 164
    Number of boundary faces = 1886

Processor 17
    Number of cells = 937
    Number of faces shared with processor 8 = 2
    Number of faces shared with processor 9 = 81
    Number of faces shared with processor 16 = 9
    Number of faces shared with processor 25 = 87
    Number of faces shared with processor 26 = 3
    Number of faces shared with processor 34 = 10
    Number of faces shared with processor 42 = 4
    Number of processor patches = 7
    Number of processor faces = 196
    Number of boundary faces = 1874

Processor 18
    Number of cells = 937
    Number of faces shared with processor 9 = 5
    Number of faces shared with processor 10 = 98
    Number of faces shared with processor 26 = 89
    Number of faces shared with processor 43 = 17
    Number of processor patches = 4
    Number of processor faces = 209
    Number of boundary faces = 1895

Processor 19
    Number of cells = 937
    Number of faces shared with processor 4 = 1
    Number of faces shared with processor 10 = 7
    Number of faces shared with processor 11 = 111
    Number of faces shared with processor 12 = 10
    Number of faces shared with processor 27 = 115
    Number of processor patches = 5
    Number of processor faces = 244
    Number of boundary faces = 1874

Processor 20
    Number of cells = 937
    Number of faces shared with processor 12 = 42
    Number of faces shared with processor 27 = 11
    Number of faces shared with processor 28 = 84
    Number of faces shared with processor 35 = 4
    Number of faces shared with processor 45 = 16
    Number of faces shared with processor 53 = 4
    Number of processor patches = 6
    Number of processor faces = 161
    Number of boundary faces = 1965

Processor 21
    Number of cells = 937
    Number of faces shared with processor 4 = 5
    Number of faces shared with processor 13 = 91
    Number of faces shared with processor 29 = 92
    Number of faces shared with processor 38 = 16
    Number of faces shared with processor 46 = 4
    Number of processor patches = 5
    Number of processor faces = 208
    Number of boundary faces = 1920

Processor 22
    Number of cells = 937
    Number of faces shared with processor 13 = 8
    Number of faces shared with processor 14 = 76
    Number of faces shared with processor 23 = 11
    Number of faces shared with processor 30 = 85
    Number of faces shared with processor 31 = 4
    Number of processor patches = 5
    Number of processor faces = 184
    Number of boundary faces = 1874

Processor 23
    Number of cells = 937
    Number of faces shared with processor 14 = 2
    Number of faces shared with processor 15 = 76
    Number of faces shared with processor 22 = 11
    Number of faces shared with processor 31 = 76
    Number of processor patches = 4
    Number of processor faces = 165
    Number of boundary faces = 1887

Processor 24
    Number of cells = 937
    Number of faces shared with processor 16 = 76
    Number of faces shared with processor 25 = 7
    Number of faces shared with processor 32 = 76
    Number of faces shared with processor 33 = 6
    Number of processor patches = 4
    Number of processor faces = 165
    Number of boundary faces = 1887

Processor 25
    Number of cells = 937
    Number of faces shared with processor 16 = 3
    Number of faces shared with processor 17 = 87
    Number of faces shared with processor 24 = 7
    Number of faces shared with processor 33 = 82
    Number of faces shared with processor 42 = 16
    Number of faces shared with processor 50 = 1
    Number of processor patches = 6
    Number of processor faces = 196
    Number of boundary faces = 1918

Processor 26
    Number of cells = 937
    Number of faces shared with processor 9 = 4
    Number of faces shared with processor 17 = 3
    Number of faces shared with processor 18 = 89
    Number of faces shared with processor 34 = 94
    Number of faces shared with processor 51 = 19
    Number of processor patches = 5
    Number of processor faces = 209
    Number of boundary faces = 1913

Processor 27
    Number of cells = 937
    Number of faces shared with processor 10 = 4
    Number of faces shared with processor 12 = 5
    Number of faces shared with processor 19 = 115
    Number of faces shared with processor 20 = 11
    Number of faces shared with processor 35 = 127
    Number of processor patches = 5
    Number of processor faces = 262
    Number of boundary faces = 1874

Processor 28
    Number of cells = 937
    Number of faces shared with processor 20 = 84
    Number of faces shared with processor 36 = 127
    Number of faces shared with processor 43 = 4
    Number of faces shared with processor 53 = 4
    Number of processor patches = 4
    Number of processor faces = 219
    Number of boundary faces = 1917

Processor 29
    Number of cells = 937
    Number of faces shared with processor 4 = 2
    Number of faces shared with processor 12 = 6
    Number of faces shared with processor 21 = 92
    Number of faces shared with processor 37 = 94
    Number of faces shared with processor 46 = 10
    Number of processor patches = 5
    Number of processor faces = 204
    Number of boundary faces = 1918

Processor 30
    Number of cells = 937
    Number of faces shared with processor 13 = 9
    Number of faces shared with processor 22 = 85
    Number of faces shared with processor 31 = 8
    Number of faces shared with processor 38 = 82
    Number of faces shared with processor 39 = 6
    Number of processor patches = 5
    Number of processor faces = 190
    Number of boundary faces = 1928

Processor 31
    Number of cells = 937
    Number of faces shared with processor 22 = 4
    Number of faces shared with processor 23 = 76
    Number of faces shared with processor 30 = 8
    Number of faces shared with processor 39 = 76
    Number of processor patches = 4
    Number of processor faces = 164
    Number of boundary faces = 1886

Processor 32
    Number of cells = 937
    Number of faces shared with processor 24 = 76
    Number of faces shared with processor 33 = 7
    Number of faces shared with processor 40 = 76
    Number of faces shared with processor 41 = 5
    Number of processor patches = 4
    Number of processor faces = 164
    Number of boundary faces = 1886

Processor 33
    Number of cells = 937
    Number of faces shared with processor 24 = 6
    Number of faces shared with processor 25 = 82
    Number of faces shared with processor 32 = 7
    Number of faces shared with processor 41 = 84
    Number of faces shared with processor 50 = 9
    Number of processor patches = 5
    Number of processor faces = 188
    Number of boundary faces = 1930

Processor 34
    Number of cells = 937
    Number of faces shared with processor 17 = 10
    Number of faces shared with processor 26 = 94
    Number of faces shared with processor 42 = 92
    Number of faces shared with processor 51 = 6
    Number of faces shared with processor 59 = 2
    Number of processor patches = 5
    Number of processor faces = 204
    Number of boundary faces = 1918

Processor 35
    Number of cells = 937
    Number of faces shared with processor 10 = 4
    Number of faces shared with processor 20 = 4
    Number of faces shared with processor 27 = 127
    Number of faces shared with processor 43 = 84
    Number of processor patches = 4
    Number of processor faces = 219
    Number of boundary faces = 1917

Processor 36
    Number of cells = 937
    Number of faces shared with processor 28 = 127
    Number of faces shared with processor 43 = 11
    Number of faces shared with processor 44 = 116
    Number of faces shared with processor 51 = 4
    Number of faces shared with processor 53 = 4
    Number of processor patches = 5
    Number of processor faces = 262
    Number of boundary faces = 1874

Processor 37
    Number of cells = 937
    Number of faces shared with processor 12 = 19
    Number of faces shared with processor 29 = 94
    Number of faces shared with processor 45 = 89
    Number of faces shared with processor 46 = 3
    Number of faces shared with processor 54 = 4
    Number of processor patches = 5
    Number of processor faces = 209
    Number of boundary faces = 1913

Processor 38
    Number of cells = 937
    Number of faces shared with processor 13 = 1
    Number of faces shared with processor 21 = 16
    Number of faces shared with processor 30 = 82
    Number of faces shared with processor 39 = 7
    Number of faces shared with processor 46 = 87
    Number of faces shared with processor 47 = 3
    Number of processor patches = 6
    Number of processor faces = 196
    Number of boundary faces = 1920

Processor 39
    Number of cells = 937
    Number of faces shared with processor 30 = 6
    Number of faces shared with processor 31 = 76
    Number of faces shared with processor 38 = 7
    Number of faces shared with processor 47 = 76
    Number of processor patches = 4
    Number of processor faces = 165
    Number of boundary faces = 1887

Processor 40
    Number of cells = 937
    Number of faces shared with processor 32 = 76
    Number of faces shared with processor 41 = 11
    Number of faces shared with processor 48 = 76
    Number of faces shared with processor 49 = 2
    Number of processor patches = 4
    Number of processor faces = 165
    Number of boundary faces = 1887

Processor 41
    Number of cells = 937
    Number of faces shared with processor 32 = 5
    Number of faces shared with processor 33 = 84
    Number of faces shared with processor 40 = 11
    Number of faces shared with processor 49 = 78
    Number of faces shared with processor 50 = 8
    Number of processor patches = 5
    Number of processor faces = 186
    Number of boundary faces = 1874

Processor 42
    Number of cells = 937
    Number of faces shared with processor 17 = 4
    Number of faces shared with processor 25 = 16
    Number of faces shared with processor 34 = 92
    Number of faces shared with processor 50 = 91
    Number of faces shared with processor 59 = 5
    Number of processor patches = 5
    Number of processor faces = 208
    Number of boundary faces = 1920

Processor 43
    Number of cells = 937
    Number of faces shared with processor 10 = 3
    Number of faces shared with processor 18 = 17
    Number of faces shared with processor 28 = 4
    Number of faces shared with processor 35 = 84
    Number of faces shared with processor 36 = 11
    Number of faces shared with processor 51 = 42
    Number of processor patches = 6
    Number of processor faces = 161
    Number of boundary faces = 1965

Processor 44
    Number of cells = 937
    Number of faces shared with processor 36 = 116
    Number of faces shared with processor 51 = 11
    Number of faces shared with processor 52 = 111
    Number of faces shared with processor 53 = 7
    Number of faces shared with processor 59 = 1
    Number of processor patches = 5
    Number of processor faces = 246
    Number of boundary faces = 1874

Processor 45
    Number of cells = 937
    Number of faces shared with processor 20 = 16
    Number of faces shared with processor 37 = 89
    Number of faces shared with processor 53 = 99
    Number of faces shared with processor 54 = 5
    Number of processor patches = 4
    Number of processor faces = 209
    Number of boundary faces = 1895

Processor 46
    Number of cells = 937
    Number of faces shared with processor 21 = 4
    Number of faces shared with processor 29 = 10
    Number of faces shared with processor 37 = 3
    Number of faces shared with processor 38 = 87
    Number of faces shared with processor 47 = 9
    Number of faces shared with processor 54 = 81
    Number of faces shared with processor 55 = 2
    Number of processor patches = 7
    Number of processor faces = 196
    Number of boundary faces = 1874

Processor 47
    Number of cells = 937
    Number of faces shared with processor 38 = 3
    Number of faces shared with processor 39 = 76
    Number of faces shared with processor 46 = 9
    Number of faces shared with processor 55 = 76
    Number of processor patches = 4
    Number of processor faces = 164
    Number of boundary faces = 1886

Processor 48
    Number of cells = 937
    Number of faces shared with processor 40 = 76
    Number of faces shared with processor 49 = 12
    Number of faces shared with processor 56 = 76
    Number of processor patches = 3
    Number of processor faces = 164
    Number of boundary faces = 1886

Processor 49
    Number of cells = 937
    Number of faces shared with processor 40 = 2
    Number of faces shared with processor 41 = 78
    Number of faces shared with processor 48 = 12
    Number of faces shared with processor 50 = 6
    Number of faces shared with processor 57 = 75
    Number of faces shared with processor 58 = 5
    Number of processor patches = 6
    Number of processor faces = 178
    Number of boundary faces = 1874

Processor 50
    Number of cells = 937
    Number of faces shared with processor 25 = 1
    Number of faces shared with processor 33 = 9
    Number of faces shared with processor 41 = 8
    Number of faces shared with processor 42 = 91
    Number of faces shared with processor 49 = 6
    Number of faces shared with processor 58 = 74
    Number of faces shared with processor 59 = 7
    Number of processor patches = 7
    Number of processor faces = 196
    Number of boundary faces = 1874

Processor 51
    Number of cells = 937
    Number of faces shared with processor 26 = 19
    Number of faces shared with processor 34 = 6
    Number of faces shared with processor 36 = 4
    Number of faces shared with processor 43 = 42
    Number of faces shared with processor 44 = 11
    Number of faces shared with processor 59 = 48
    Number of processor patches = 6
    Number of processor faces = 130
    Number of boundary faces = 1890

Processor 52
    Number of cells = 937
    Number of faces shared with processor 44 = 111
    Number of faces shared with processor 53 = 1
    Number of faces shared with processor 59 = 10
    Number of faces shared with processor 60 = 108
    Number of faces shared with processor 61 = 6
    Number of processor patches = 5
    Number of processor faces = 236
    Number of boundary faces = 1874

Processor 53
    Number of cells = 937
    Number of faces shared with processor 20 = 4
    Number of faces shared with processor 28 = 4
    Number of faces shared with processor 36 = 4
    Number of faces shared with processor 44 = 7
    Number of faces shared with processor 45 = 99
    Number of faces shared with processor 52 = 1
    Number of faces shared with processor 54 = 4
    Number of faces shared with processor 61 = 86
    Number of faces shared with processor 62 = 3
    Number of processor patches = 9
    Number of processor faces = 212
    Number of boundary faces = 1874

Processor 54
    Number of cells = 937
    Number of faces shared with processor 37 = 4
    Number of faces shared with processor 45 = 5
    Number of faces shared with processor 46 = 81
    Number of faces shared with processor 53 = 4
    Number of faces shared with processor 55 = 11
    Number of faces shared with processor 62 = 79
    Number of processor patches = 6
    Number of processor faces = 184
    Number of boundary faces = 1874

Processor 55
    Number of cells = 937
    Number of faces shared with processor 46 = 2
    Number of faces shared with processor 47 = 76
    Number of faces shared with processor 54 = 11
    Number of faces shared with processor 63 = 76
    Number of processor patches = 4
    Number of processor faces = 165
    Number of boundary faces = 1887

Processor 56
    Number of cells = 941
    Number of faces shared with processor 48 = 76
    Number of faces shared with processor 57 = 14
    Number of processor patches = 2
    Number of processor faces = 90
    Number of boundary faces = 1970

Processor 57
    Number of cells = 941
    Number of faces shared with processor 49 = 75
    Number of faces shared with processor 56 = 14
    Number of faces shared with processor 58 = 13
    Number of processor patches = 3
    Number of processor faces = 102
    Number of boundary faces = 1954

Processor 58
    Number of cells = 941
    Number of faces shared with processor 49 = 5
    Number of faces shared with processor 50 = 74
    Number of faces shared with processor 57 = 13
    Number of faces shared with processor 59 = 11
    Number of processor patches = 4
    Number of processor faces = 103
    Number of boundary faces = 1949

Processor 59
    Number of cells = 941
    Number of faces shared with processor 34 = 2
    Number of faces shared with processor 42 = 5
    Number of faces shared with processor 44 = 1
    Number of faces shared with processor 50 = 7
    Number of faces shared with processor 51 = 48
    Number of faces shared with processor 52 = 10
    Number of faces shared with processor 58 = 11
    Number of faces shared with processor 60 = 9
    Number of processor patches = 8
    Number of processor faces = 93
    Number of boundary faces = 1925

Processor 60
    Number of cells = 941
    Number of faces shared with processor 52 = 108
    Number of faces shared with processor 59 = 9
    Number of faces shared with processor 61 = 8
    Number of processor patches = 3
    Number of processor faces = 125
    Number of boundary faces = 1989

Processor 61
    Number of cells = 941
    Number of faces shared with processor 52 = 6
    Number of faces shared with processor 53 = 86
    Number of faces shared with processor 60 = 8
    Number of faces shared with processor 62 = 11
    Number of processor patches = 4
    Number of processor faces = 111
    Number of boundary faces = 1965

Processor 62
    Number of cells = 941
    Number of faces shared with processor 53 = 3
    Number of faces shared with processor 54 = 79
    Number of faces shared with processor 61 = 11
    Number of faces shared with processor 63 = 13
    Number of processor patches = 4
    Number of processor faces = 106
    Number of boundary faces = 1960

Processor 63
    Number of cells = 941
    Number of faces shared with processor 55 = 76
    Number of faces shared with processor 62 = 13
    Number of processor patches = 2
    Number of processor faces = 89
    Number of boundary faces = 1969

Number of processor faces = 5423
Max number of cells = 941 (0.373333% above average 937.5)
Max number of processor patches = 9 (87.013% above average 4.8125)
Max number of faces between processors = 262 (54.6008% above average 169.469)

Time = 0

Processor 0: field transfer
Processor 1: field transfer
Processor 2: field transfer
Processor 3: field transfer
Processor 4: field transfer
Processor 5: field transfer
Processor 6: field transfer
Processor 7: field transfer
Processor 8: field transfer
Processor 9: field transfer
Processor 10: field transfer
Processor 11: field transfer
Processor 12: field transfer
Processor 13: field transfer
Processor 14: field transfer
Processor 15: field transfer
Processor 16: field transfer
Processor 17: field transfer
Processor 18: field transfer
Processor 19: field transfer
Processor 20: field transfer
Processor 21: field transfer
Processor 22: field transfer
Processor 23: field transfer
Processor 24: field transfer
Processor 25: field transfer
Processor 26: field transfer
Processor 27: field transfer
Processor 28: field transfer
Processor 29: field transfer
Processor 30: field transfer
Processor 31: field transfer
Processor 32: field transfer
Processor 33: field transfer
Processor 34: field transfer
Processor 35: field transfer
Processor 36: field transfer
Processor 37: field transfer
Processor 38: field transfer
Processor 39: field transfer
Processor 40: field transfer
Processor 41: field transfer
Processor 42: field transfer
Processor 43: field transfer
Processor 44: field transfer
Processor 45: field transfer
Processor 46: field transfer
Processor 47: field transfer
Processor 48: field transfer
Processor 49: field transfer
Processor 50: field transfer
Processor 51: field transfer
Processor 52: field transfer
Processor 53: field transfer
Processor 54: field transfer
Processor 55: field transfer
Processor 56: field transfer
Processor 57: field transfer
Processor 58: field transfer
Processor 59: field transfer
Processor 60: field transfer
Processor 61: field transfer
Processor 62: field transfer
Processor 63: field transfer

End

