/*---------------------------------------------------------------------------*\
  =========                 |
  \\      /  F ield         | OpenFOAM: The Open Source CFD Toolbox
   \\    /   O peration     | Website:  https://openfoam.org
    \\  /    A nd           | Version:  7
     \\/     M anipulation  |
\*---------------------------------------------------------------------------*/
Build  : 7-49b2b3b8b082
Exec   : checkMesh
Date   : May 09 2022
Time   : 20:26:30
Host   : "c467-082.stampede2.tacc.utexas.edu"
PID    : 7488
I/O    : uncollated
Case   : /work2/07674/bradenp/stampede2/diamond-airfoil/simulations/unorganized/test_new_mesh2
nProcs : 1
sigFpe : Enabling floating point exception trapping (FOAM_SIGFPE).
fileModificationChecking : Monitoring run-time modified files using timeStampMaster (fileModificationSkew 10)
allowSystemOperations : Allowing user-supplied system call operations

// * * * * * * * * * * * * * * * * * * * * * * * * * * * * * * * * * * * * * //
Create time

Create polyMesh for time = 0

Time = 0

Mesh stats
    points:           122200
    internal points:  0
    faces:            241100
    internal faces:   118900
    cells:            60000
    faces per cell:   6
    boundary patches: 6
    point zones:      0
    face zones:       0
    cell zones:       0

Overall number of cells of each type:
    hexahedra:     60000
    prisms:        0
    wedges:        0
    pyramids:      0
    tet wedges:    0
    tetrahedra:    0
    polyhedra:     0

Checking topology...
    Boundary definition OK.
    Cell to face addressing OK.
    Point usage OK.
    Upper triangular ordering OK.
    Face vertices OK.
    Number of regions: 1 (OK).

Checking patch topology for multiply connected surfaces...
    Patch               Faces    Points   Surface topology                  
    inlet               100      202      ok (non-closed singly connected)  
    outlet              100      202      ok (non-closed singly connected)  
    airfoil             800      1600     ok (non-closed singly connected)  
    top                 600      1202     ok (non-closed singly connected)  
    bottom              600      1202     ok (non-closed singly connected)  
    defaultFaces        120000   122200   ok (non-closed singly connected)  

Checking geometry...
    Overall domain bounding box (-6 -6 -0.05) (6 6 0.05)
    Mesh has 2 geometric (non-empty/wedge) directions (1 1 0)
    Mesh has 2 solution (non-empty) directions (1 1 0)
    All edges aligned with or perpendicular to non-empty directions.
    Boundary openness (1.14242e-19 -1.03699e-17 6.92736e-16) OK.
    Max cell openness = 2.12009e-16 OK.
    Max aspect ratio = 218.143 OK.
    Minimum face area = 1.89112e-05. Maximum face area = 0.0787969.  Face area magnitudes OK.
    Min volume = 1.89112e-06. Max volume = 0.00787969.  Total volume = 14.22.  Cell volumes OK.
    Mesh non-orthogonality Max: 35.6894 average: 20.5307
    Non-orthogonality check OK.
    Face pyramids OK.
    Max skewness = 1.7817 OK.
    Coupled point location match (average 0) OK.

Mesh OK.

End

