/*---------------------------------------------------------------------------*\
  =========                 |
  \\      /  F ield         | OpenFOAM: The Open Source CFD Toolbox
   \\    /   O peration     | Website:  https://openfoam.org
    \\  /    A nd           | Version:  7
     \\/     M anipulation  |
\*---------------------------------------------------------------------------*/
Build  : 7-49b2b3b8b082
Exec   : checkMesh
Date   : May 07 2022
Time   : 02:06:18
Host   : "c411-064.stampede2.tacc.utexas.edu"
PID    : 16391
I/O    : uncollated
Case   : /work2/07674/bradenp/stampede2/diamond-airfoil/simulations/unorganized/test_new_mesh2
nProcs : 1
sigFpe : Enabling floating point exception trapping (FOAM_SIGFPE).
fileModificationChecking : Monitoring run-time modified files using timeStampMaster (fileModificationSkew 10)
allowSystemOperations : Allowing user-supplied system call operations

// * * * * * * * * * * * * * * * * * * * * * * * * * * * * * * * * * * * * * //
Create time

Create polyMesh for time = 0

Time = 0

Mesh stats
    points:           2409800
    internal points:  0
    faces:            4804900
    internal faces:   2395100
    cells:            1200000
    faces per cell:   6
    boundary patches: 6
    point zones:      0
    face zones:       0
    cell zones:       0

Overall number of cells of each type:
    hexahedra:     1200000
    prisms:        0
    wedges:        0
    pyramids:      0
    tet wedges:    0
    tetrahedra:    0
    polyhedra:     0

Checking topology...
    Boundary definition OK.
    Cell to face addressing OK.
    Point usage OK.
    Upper triangular ordering OK.
    Face vertices OK.
    Number of regions: 1 (OK).

Checking patch topology for multiply connected surfaces...
    Patch               Faces    Points   Surface topology                  
    inlet               500      1002     ok (non-closed singly connected)  
    outlet              500      1002     ok (non-closed singly connected)  
    airfoil             4000     8000     ok (non-closed singly connected)  
    top                 2400     4802     ok (non-closed singly connected)  
    bottom              2400     4802     ok (non-closed singly connected)  
    defaultFaces        2400000  2409800  ok (non-closed singly connected)  

Checking geometry...
    Overall domain bounding box (-6 -6 -0.05) (6 6 0.05)
    Mesh has 2 geometric (non-empty/wedge) directions (1 1 0)
    Mesh has 2 solution (non-empty) directions (1 1 0)
    All edges aligned with or perpendicular to non-empty directions.
    Boundary openness (-2.01164e-17 -7.57414e-17 -4.41971e-15) OK.
    Max cell openness = 3.22192e-16 OK.
    Max aspect ratio = 56.3202 OK.
    Minimum face area = 3.3249e-06. Maximum face area = 0.0139508.  Face area magnitudes OK.
    Min volume = 3.3249e-07. Max volume = 0.000642021.  Total volume = 13.8.  Cell volumes OK.
    Mesh non-orthogonality Max: 38.4313 average: 20.4572
    Non-orthogonality check OK.
    Face pyramids OK.
    Max skewness = 0.792892 OK.
    Coupled point location match (average 0) OK.

Mesh OK.

End

