/*---------------------------------------------------------------------------*\
  =========                 |
  \\      /  F ield         | OpenFOAM: The Open Source CFD Toolbox
   \\    /   O peration     | Website:  https://openfoam.org
    \\  /    A nd           | Version:  7
     \\/     M anipulation  |
\*---------------------------------------------------------------------------*/
Build  : 7-49b2b3b8b082
Exec   : icoFoam
Date   : Apr 25 2022
Time   : 19:36:05
Host   : "c469-064.stampede2.tacc.utexas.edu"
PID    : 187076
I/O    : uncollated
Case   : /work2/07674/bradenp/stampede2/diamond-airfoil/circular-cylinder
nProcs : 1
sigFpe : Enabling floating point exception trapping (FOAM_SIGFPE).
fileModificationChecking : Monitoring run-time modified files using timeStampMaster (fileModificationSkew 10)
allowSystemOperations : Allowing user-supplied system call operations

// * * * * * * * * * * * * * * * * * * * * * * * * * * * * * * * * * * * * * //
Create time

Create mesh for time = 0

Reading transportProperties

Reading field p

Reading field U

Reading/calculating face flux field phi


Starting time loop

--> FOAM Warning : 
    From function void Foam::probes::findElements(const Foam::fvMesh &)
    in file probes/probes.C at line 119
    Did not find location (0 0 0) in any cell. Skipping location.
--> FOAM Warning : 
    From function void Foam::sampledSets::combineSampledSets(Foam::PtrList<Foam::coordSet> &, Foam::List<Foam::List<int>> &)
    in file sampledSet/sampledSets/sampledSets.C at line 115
    Sample set line has zero points.
Reading set description:
    line

forces forces:
    Not including porosity effects
forces forceCoeffs:
--> FOAM Warning : 
    From function Foam::HashSet<int, Foam::Hash<int>> Foam::polyBoundaryMesh::patchSet(const Foam::UList<Foam::wordRe> &, bool, bool) const
    in file meshes/polyMesh/polyBoundaryMesh/polyBoundaryMesh.C at line 804
    Cannot find any patch or group names matching cylinder
    Not including porosity effects
forceCoeffs forceCoeffs:
--> FOAM Warning : 
    From function Foam::HashSet<int, Foam::Hash<int>> Foam::polyBoundaryMesh::patchSet(const Foam::UList<Foam::wordRe> &, bool, bool) const
    in file meshes/polyMesh/polyBoundaryMesh/polyBoundaryMesh.C at line 804
    Cannot find any patch or group names matching cylinder
    Not including porosity effects
Time = 0.01

Courant Number mean: 0.121304 max: 0.390436
smoothSolver:  Solving for Ux, Initial residual = 1, Final residual = 6.12654e-08, No Iterations 5
smoothSolver:  Solving for Uy, Initial residual = 0, Final residual = 0, No Iterations 0
DICPCG:  Solving for p, Initial residual = 1, Final residual = 9.23185e-08, No Iterations 161
time step continuity errors : sum local = 2.67201e-11, global = -2.82358e-13, cumulative = -2.82358e-13
DICPCG:  Solving for p, Initial residual = 0.0295285, Final residual = 9.03542e-08, No Iterations 145
time step continuity errors : sum local = 5.86251e-10, global = 6.0943e-12, cumulative = 5.81194e-12
ExecutionTime = 1.73 s  ClockTime = 5 s

forces forces write:
    sum of forces:
        pressure : (28.8921 47.2435 1.31942e-17)
        viscous  : (1.7758 -0.0865804 -1.28486e-17)
        porous   : (0 0 0)
    sum of moments:
        pressure : (-4.04877e-17 -1.57413e-17 -1.57616)
        viscous  : (1.5032e-17 -4.1176e-17 0.0144133)
        porous   : (0 0 0)

forceCoeffs forceCoeffs write:
    Cm    = 0
    Cd    = 0
    Cl    = 0
    Cl(f) = 0
    Cl(r) = 0

Time = 0.02

Courant Number mean: 0.125684 max: 0.627753
smoothSolver:  Solving for Ux, Initial residual = 0.351589, Final residual = 3.34527e-08, No Iterations 6
smoothSolver:  Solving for Uy, Initial residual = 0.328548, Final residual = 2.94317e-08, No Iterations 6
DICPCG:  Solving for p, Initial residual = 0.062835, Final residual = 8.19622e-08, No Iterations 151
time step continuity errors : sum local = 4.69618e-10, global = 2.18894e-12, cumulative = 8.00088e-12
DICPCG:  Solving for p, Initial residual = 0.205713, Final residual = 8.33984e-08, No Iterations 153
time step continuity errors : sum local = 8.15946e-11, global = 1.7796e-13, cumulative = 8.17884e-12
ExecutionTime = 1.92 s  ClockTime = 5 s

forces forces write:
    sum of forces:
        pressure : (0.911881 -0.722402 4.40461e-19)
        viscous  : (1.47578 -0.0946357 -5.73095e-19)
        porous   : (0 0 0)
    sum of moments:
        pressure : (-1.1446e-18 2.02064e-18 -0.264553)
        viscous  : (5.81713e-19 -8.52496e-19 0.00751714)
        porous   : (0 0 0)

forceCoeffs forceCoeffs write:
    Cm    = 0
    Cd    = 0
    Cl    = 0
    Cl(f) = 0
    Cl(r) = 0

Time = 0.03

Courant Number mean: 0.12579 max: 0.552145
smoothSolver:  Solving for Ux, Initial residual = 0.0330773, Final residual = 1.75731e-08, No Iterations 5
smoothSolver:  Solving for Uy, Initial residual = 0.0310525, Final residual = 2.35532e-08, No Iterations 5
DICPCG:  Solving for p, Initial residual = 0.298947, Final residual = 9.21566e-08, No Iterations 149
time step continuity errors : sum local = 4.71383e-11, global = 9.61475e-14, cumulative = 8.27499e-12
DICPCG:  Solving for p, Initial residual = 0.0866529, Final residual = 7.86807e-08, No Iterations 147
time step continuity errors : sum local = 2.99822e-11, global = 1.48972e-13, cumulative = 8.42396e-12
ExecutionTime = 2.08 s  ClockTime = 6 s

forces forces write:
    sum of forces:
        pressure : (0.708827 -0.18266 2.51259e-19)
        viscous  : (1.26749 -0.0891673 -4.972e-19)
        porous   : (0 0 0)
    sum of moments:
        pressure : (-3.28333e-19 -9.63776e-19 -0.387248)
        viscous  : (9.73134e-20 -7.37413e-19 0.0014297)
        porous   : (0 0 0)

forceCoeffs forceCoeffs write:
    Cm    = 0
    Cd    = 0
    Cl    = 0
    Cl(f) = 0
    Cl(r) = 0

Time = 0.04

Courant Number mean: 0.125812 max: 0.544584
smoothSolver:  Solving for Ux, Initial residual = 0.0253314, Final residual = 1.29086e-08, No Iterations 5
smoothSolver:  Solving for Uy, Initial residual = 0.0174283, Final residual = 1.73242e-08, No Iterations 5
DICPCG:  Solving for p, Initial residual = 0.0871379, Final residual = 9.3125e-08, No Iterations 144
time step continuity errors : sum local = 3.2557e-11, global = -3.9952e-14, cumulative = 8.38401e-12
DICPCG:  Solving for p, Initial residual = 0.0168261, Final residual = 9.13896e-08, No Iterations 140
time step continuity errors : sum local = 2.35565e-11, global = 7.48236e-13, cumulative = 9.13224e-12
ExecutionTime = 2.25 s  ClockTime = 6 s

forces forces write:
    sum of forces:
        pressure : (0.614653 0.0516903 1.15084e-19)
        viscous  : (1.10716 -0.0844767 -3.7252e-19)
        porous   : (0 0 0)
    sum of moments:
        pressure : (-3.74704e-19 -7.62631e-19 -0.360939)
        viscous  : (1.25916e-19 -6.89518e-19 -0.00236508)
        porous   : (0 0 0)

forceCoeffs forceCoeffs write:
    Cm    = 0
    Cd    = 0
    Cl    = 0
    Cl(f) = 0
    Cl(r) = 0

Time = 0.05

Courant Number mean: 0.125831 max: 0.536763
smoothSolver:  Solving for Ux, Initial residual = 0.0195236, Final residual = 7.49362e-08, No Iterations 4
smoothSolver:  Solving for Uy, Initial residual = 0.0141455, Final residual = 1.39463e-08, No Iterations 5
DICPCG:  Solving for p, Initial residual = 0.0521168, Final residual = 9.93475e-08, No Iterations 143
time step continuity errors : sum local = 2.57833e-11, global = -2.1027e-13, cumulative = 8.92197e-12
DICPCG:  Solving for p, Initial residual = 0.00920529, Final residual = 8.90228e-08, No Iterations 139
time step continuity errors : sum local = 1.8127e-11, global = 3.01199e-13, cumulative = 9.22317e-12
ExecutionTime = 2.4 s  ClockTime = 6 s

forces forces write:
    sum of forces:
        pressure : (0.52541 0.143337 2.6562e-20)
        viscous  : (0.982101 -0.0793159 -2.88704e-19)
        porous   : (0 0 0)
    sum of moments:
        pressure : (-3.92713e-19 -5.89388e-19 -0.352604)
        viscous  : (1.36346e-19 -6.14862e-19 -0.00504276)
        porous   : (0 0 0)

forceCoeffs forceCoeffs write:
    Cm    = 0
    Cd    = 0
    Cl    = 0
    Cl(f) = 0
    Cl(r) = 0

Time = 0.06

Courant Number mean: 0.125847 max: 0.52844
smoothSolver:  Solving for Ux, Initial residual = 0.0157417, Final residual = 6.16926e-08, No Iterations 4
smoothSolver:  Solving for Uy, Initial residual = 0.0117741, Final residual = 9.34956e-08, No Iterations 4
DICPCG:  Solving for p, Initial residual = 0.0371717, Final residual = 9.18519e-08, No Iterations 142
time step continuity errors : sum local = 1.88805e-11, global = 4.98139e-14, cumulative = 9.27298e-12
DICPCG:  Solving for p, Initial residual = 0.00647596, Final residual = 9.1779e-08, No Iterations 137
time step continuity errors : sum local = 1.53592e-11, global = 3.027e-13, cumulative = 9.57568e-12
ExecutionTime = 2.56 s  ClockTime = 6 s

forces forces write:
    sum of forces:
        pressure : (0.457312 0.190407 -3.98466e-20)
        viscous  : (0.883056 -0.0743842 -2.27935e-19)
        porous   : (0 0 0)
    sum of moments:
        pressure : (-3.92135e-19 -4.76876e-19 -0.348495)
        viscous  : (1.38204e-19 -5.49834e-19 -0.00680489)
        porous   : (0 0 0)

forceCoeffs forceCoeffs write:
    Cm    = 0
    Cd    = 0
    Cl    = 0
    Cl(f) = 0
    Cl(r) = 0

Time = 0.07

Courant Number mean: 0.125861 max: 0.520076
smoothSolver:  Solving for Ux, Initial residual = 0.013126, Final residual = 5.18924e-08, No Iterations 4
smoothSolver:  Solving for Uy, Initial residual = 0.00997746, Final residual = 7.97053e-08, No Iterations 4
DICPCG:  Solving for p, Initial residual = 0.0288834, Final residual = 9.74234e-08, No Iterations 134
time step continuity errors : sum local = 1.64716e-11, global = 7.46339e-14, cumulative = 9.65032e-12
DICPCG:  Solving for p, Initial residual = 0.00511189, Final residual = 9.50866e-08, No Iterations 132
time step continuity errors : sum local = 1.34437e-11, global = 7.15781e-14, cumulative = 9.7219e-12
ExecutionTime = 2.71 s  ClockTime = 6 s

forces forces write:
    sum of forces:
        pressure : (0.404794 0.216943 -8.85771e-20)
        viscous  : (0.803568 -0.0699324 -1.82603e-19)
        porous   : (0 0 0)
    sum of moments:
        pressure : (-3.85232e-19 -3.95897e-19 -0.345885)
        viscous  : (1.36621e-19 -4.97246e-19 -0.00790582)
        porous   : (0 0 0)

forceCoeffs forceCoeffs write:
    Cm    = 0
    Cd    = 0
    Cl    = 0
    Cl(f) = 0
    Cl(r) = 0

Time = 0.08

Courant Number mean: 0.125873 max: 0.516606
smoothSolver:  Solving for Ux, Initial residual = 0.0111855, Final residual = 4.44401e-08, No Iterations 4
smoothSolver:  Solving for Uy, Initial residual = 0.0086071, Final residual = 6.88939e-08, No Iterations 4
DICPCG:  Solving for p, Initial residual = 0.0234853, Final residual = 8.47626e-08, No Iterations 135
time step continuity errors : sum local = 1.21172e-11, global = -1.1041e-13, cumulative = 9.61149e-12
DICPCG:  Solving for p, Initial residual = 0.0043658, Final residual = 9.61644e-08, No Iterations 130
time step continuity errors : sum local = 1.17547e-11, global = -1.36987e-14, cumulative = 9.59779e-12
ExecutionTime = 2.86 s  ClockTime = 6 s

forces forces write:
    sum of forces:
        pressure : (0.36351 0.231514 -1.26099e-19)
        viscous  : (0.738991 -0.0659784 -1.47928e-19)
        porous   : (0 0 0)
    sum of moments:
        pressure : (-3.75653e-19 -3.35387e-19 -0.344094)
        viscous  : (1.33474e-19 -4.54485e-19 -0.0085654)
        porous   : (0 0 0)

forceCoeffs forceCoeffs write:
    Cm    = 0
    Cd    = 0
    Cl    = 0
    Cl(f) = 0
    Cl(r) = 0

Time = 0.09

Courant Number mean: 0.125883 max: 0.515183
smoothSolver:  Solving for Ux, Initial residual = 0.00970503, Final residual = 3.8612e-08, No Iterations 4
smoothSolver:  Solving for Uy, Initial residual = 0.00756647, Final residual = 6.03071e-08, No Iterations 4
DICPCG:  Solving for p, Initial residual = 0.0200493, Final residual = 7.97431e-08, No Iterations 141
time step continuity errors : sum local = 9.86348e-12, global = 4.3762e-14, cumulative = 9.64155e-12
DICPCG:  Solving for p, Initial residual = 0.00390439, Final residual = 7.7617e-08, No Iterations 130
time step continuity errors : sum local = 8.37206e-12, global = -5.65623e-16, cumulative = 9.64098e-12
ExecutionTime = 3.01 s  ClockTime = 7 s

forces forces write:
    sum of forces:
        pressure : (0.330407 0.238817 -1.5493e-19)
        viscous  : (0.68592 -0.0624445 -1.21009e-19)
        porous   : (0 0 0)
    sum of moments:
        pressure : (-3.65616e-19 -2.8885e-19 -0.342741)
        viscous  : (1.29706e-19 -4.19456e-19 -0.0089393)
        porous   : (0 0 0)

forceCoeffs forceCoeffs write:
    Cm    = 0
    Cd    = 0
    Cl    = 0
    Cl(f) = 0
    Cl(r) = 0

Time = 0.1

Courant Number mean: 0.125893 max: 0.51342
smoothSolver:  Solving for Ux, Initial residual = 0.00855521, Final residual = 3.39714e-08, No Iterations 4
smoothSolver:  Solving for Uy, Initial residual = 0.00675726, Final residual = 5.33973e-08, No Iterations 4
DICPCG:  Solving for p, Initial residual = 0.017122, Final residual = 7.69126e-08, No Iterations 141
time step continuity errors : sum local = 8.38924e-12, global = 1.57156e-14, cumulative = 9.6567e-12
DICPCG:  Solving for p, Initial residual = 0.00346524, Final residual = 9.5148e-08, No Iterations 129
time step continuity errors : sum local = 9.19713e-12, global = 4.59541e-14, cumulative = 9.70265e-12
ExecutionTime = 3.16 s  ClockTime = 7 s

forces forces write:
    sum of forces:
        pressure : (0.3037 0.242024 -1.76896e-19)
        viscous  : (0.641778 -0.0593251 -9.97499e-20)
        porous   : (0 0 0)
    sum of moments:
        pressure : (-3.54812e-19 -2.53128e-19 -0.341684)
        viscous  : (1.25666e-19 -3.90408e-19 -0.00914714)
        porous   : (0 0 0)

forceCoeffs forceCoeffs write:
    Cm    = 0
    Cd    = 0
    Cl    = 0
    Cl(f) = 0
    Cl(r) = 0

Time = 0.11

Courant Number mean: 0.1259 max: 0.511396
smoothSolver:  Solving for Ux, Initial residual = 0.00764657, Final residual = 3.02212e-08, No Iterations 4
smoothSolver:  Solving for Uy, Initial residual = 0.00611019, Final residual = 4.77907e-08, No Iterations 4
DICPCG:  Solving for p, Initial residual = 0.0152585, Final residual = 9.83796e-08, No Iterations 140
time step continuity errors : sum local = 9.6025e-12, global = -5.14313e-14, cumulative = 9.65122e-12
DICPCG:  Solving for p, Initial residual = 0.00314842, Final residual = 8.81e-08, No Iterations 129
time step continuity errors : sum local = 7.72141e-12, global = 5.60272e-14, cumulative = 9.70725e-12
ExecutionTime = 3.31 s  ClockTime = 7 s

forces forces write:
    sum of forces:
        pressure : (0.281755 0.243052 -1.94023e-19)
        viscous  : (0.604631 -0.0565791 -8.27047e-20)
        porous   : (0 0 0)
    sum of moments:
        pressure : (-3.44294e-19 -2.25052e-19 -0.340796)
        viscous  : (1.21672e-19 -3.66139e-19 -0.00922638)
        porous   : (0 0 0)

forceCoeffs forceCoeffs write:
    Cm    = 0
    Cd    = 0
    Cl    = 0
    Cl(f) = 0
    Cl(r) = 0

Time = 0.12

Courant Number mean: 0.125907 max: 0.509177
smoothSolver:  Solving for Ux, Initial residual = 0.00691767, Final residual = 2.71476e-08, No Iterations 4
smoothSolver:  Solving for Uy, Initial residual = 0.00558499, Final residual = 4.31437e-08, No Iterations 4
DICPCG:  Solving for p, Initial residual = 0.01357, Final residual = 9.89171e-08, No Iterations 139
time step continuity errors : sum local = 8.74728e-12, global = -1.31652e-13, cumulative = 9.5756e-12
DICPCG:  Solving for p, Initial residual = 0.00284327, Final residual = 8.56567e-08, No Iterations 129
time step continuity errors : sum local = 6.88427e-12, global = 7.1015e-14, cumulative = 9.64661e-12
ExecutionTime = 3.46 s  ClockTime = 7 s

forces forces write:
    sum of forces:
        pressure : (0.263465 0.24214 -2.07312e-19)
        viscous  : (0.573024 -0.0541438 -6.89123e-20)
        porous   : (0 0 0)
    sum of moments:
        pressure : (-3.34218e-19 -2.02642e-19 -0.339989)
        viscous  : (1.17778e-19 -3.45552e-19 -0.00922269)
        porous   : (0 0 0)

forceCoeffs forceCoeffs write:
    Cm    = 0
    Cd    = 0
    Cl    = 0
    Cl(f) = 0
    Cl(r) = 0

Time = 0.13

Courant Number mean: 0.125913 max: 0.50682
smoothSolver:  Solving for Ux, Initial residual = 0.00632117, Final residual = 2.4592e-08, No Iterations 4
smoothSolver:  Solving for Uy, Initial residual = 0.00515907, Final residual = 3.9271e-08, No Iterations 4
DICPCG:  Solving for p, Initial residual = 0.0121511, Final residual = 9.71255e-08, No Iterations 136
time step continuity errors : sum local = 7.87106e-12, global = -1.31625e-13, cumulative = 9.51499e-12
DICPCG:  Solving for p, Initial residual = 0.00259691, Final residual = 8.26162e-08, No Iterations 129
time step continuity errors : sum local = 6.15067e-12, global = 7.34946e-14, cumulative = 9.58848e-12
ExecutionTime = 3.6 s  ClockTime = 7 s

forces forces write:
    sum of forces:
        pressure : (0.248059 0.240031 -2.17894e-19)
        viscous  : (0.545843 -0.0519791 -5.76331e-20)
        porous   : (0 0 0)
    sum of moments:
        pressure : (-3.24791e-19 -1.84429e-19 -0.339218)
        viscous  : (1.14079e-19 -3.27908e-19 -0.00917861)
        porous   : (0 0 0)

forceCoeffs forceCoeffs write:
    Cm    = 0
    Cd    = 0
    Cl    = 0
    Cl(f) = 0
    Cl(r) = 0

Time = 0.14

Courant Number mean: 0.125918 max: 0.504368
smoothSolver:  Solving for Ux, Initial residual = 0.00582928, Final residual = 2.24508e-08, No Iterations 4
smoothSolver:  Solving for Uy, Initial residual = 0.00481006, Final residual = 3.60086e-08, No Iterations 4
DICPCG:  Solving for p, Initial residual = 0.0110733, Final residual = 9.06339e-08, No Iterations 134
time step continuity errors : sum local = 6.79854e-12, global = 2.93959e-15, cumulative = 9.59142e-12
DICPCG:  Solving for p, Initial residual = 0.00239277, Final residual = 9.28789e-08, No Iterations 128
time step continuity errors : sum local = 6.45965e-12, global = 7.86755e-14, cumulative = 9.6701e-12
ExecutionTime = 3.75 s  ClockTime = 7 s

forces forces write:
    sum of forces:
        pressure : (0.234961 0.237348 -2.26176e-19)
        viscous  : (0.522228 -0.050047 -4.83602e-20)
        porous   : (0 0 0)
    sum of moments:
        pressure : (-3.16197e-19 -1.69679e-19 -0.338497)
        viscous  : (1.10635e-19 -3.12642e-19 -0.00911998)
        porous   : (0 0 0)

forceCoeffs forceCoeffs write:
    Cm    = 0
    Cd    = 0
    Cl    = 0
    Cl(f) = 0
    Cl(r) = 0

Time = 0.15

Courant Number mean: 0.125923 max: 0.501858
smoothSolver:  Solving for Ux, Initial residual = 0.005419, Final residual = 2.06428e-08, No Iterations 4
smoothSolver:  Solving for Uy, Initial residual = 0.00451694, Final residual = 3.32253e-08, No Iterations 4
DICPCG:  Solving for p, Initial residual = 0.0103462, Final residual = 9.96426e-08, No Iterations 133
time step continuity errors : sum local = 6.97613e-12, global = 8.60685e-14, cumulative = 9.75617e-12
DICPCG:  Solving for p, Initial residual = 0.0022167, Final residual = 9.72847e-08, No Iterations 127
time step continuity errors : sum local = 6.36584e-12, global = 4.12755e-14, cumulative = 9.79744e-12
ExecutionTime = 3.89 s  ClockTime = 7 s

forces forces write:
    sum of forces:
        pressure : (0.223752 0.234441 -2.32592e-19)
        viscous  : (0.501512 -0.0483103 -4.06497e-20)
        porous   : (0 0 0)
    sum of moments:
        pressure : (-3.08407e-19 -1.57719e-19 -0.337659)
        viscous  : (1.07448e-19 -2.9947e-19 -0.00906116)
        porous   : (0 0 0)

forceCoeffs forceCoeffs write:
    Cm    = 0
    Cd    = 0
    Cl    = 0
    Cl(f) = 0
    Cl(r) = 0

Time = 0.16

Courant Number mean: 0.125927 max: 0.500412
smoothSolver:  Solving for Ux, Initial residual = 0.00507253, Final residual = 1.91015e-08, No Iterations 4
smoothSolver:  Solving for Uy, Initial residual = 0.00426759, Final residual = 3.08328e-08, No Iterations 4
DICPCG:  Solving for p, Initial residual = 0.00968458, Final residual = 8.40828e-08, No Iterations 133
time step continuity errors : sum local = 5.53471e-12, global = 7.67705e-14, cumulative = 9.87421e-12
DICPCG:  Solving for p, Initial residual = 0.00205896, Final residual = 8.70866e-08, No Iterations 127
time step continuity errors : sum local = 5.39475e-12, global = 3.31886e-14, cumulative = 9.9074e-12
ExecutionTime = 4.05 s  ClockTime = 8 s

forces forces write:
    sum of forces:
        pressure : (0.214021 0.231374 -2.37727e-19)
        viscous  : (0.483183 -0.0467414 -3.41932e-20)
        porous   : (0 0 0)
    sum of moments:
        pressure : (-3.01172e-19 -1.47716e-19 -0.337058)
        viscous  : (1.04493e-19 -2.87927e-19 -0.00901029)
        porous   : (0 0 0)

forceCoeffs forceCoeffs write:
    Cm    = 0
    Cd    = 0
    Cl    = 0
    Cl(f) = 0
    Cl(r) = 0

Time = 0.17

Courant Number mean: 0.125931 max: 0.499882
smoothSolver:  Solving for Ux, Initial residual = 0.00477689, Final residual = 1.77769e-08, No Iterations 4
smoothSolver:  Solving for Uy, Initial residual = 0.00405159, Final residual = 2.87437e-08, No Iterations 4
DICPCG:  Solving for p, Initial residual = 0.0094088, Final residual = 8.2073e-08, No Iterations 133
time step continuity errors : sum local = 5.10745e-12, global = 8.70929e-14, cumulative = 9.99449e-12
DICPCG:  Solving for p, Initial residual = 0.00191516, Final residual = 9.01638e-08, No Iterations 126
time step continuity errors : sum local = 5.30836e-12, global = 1.26567e-14, cumulative = 1.00071e-11
ExecutionTime = 4.19 s  ClockTime = 8 s

forces forces write:
    sum of forces:
        pressure : (0.205624 0.228394 -2.41841e-19)
        viscous  : (0.466835 -0.0453121 -2.86374e-20)
        porous   : (0 0 0)
    sum of moments:
        pressure : (-2.94559e-19 -1.39134e-19 -0.336296)
        viscous  : (1.01767e-19 -2.78051e-19 -0.00896417)
        porous   : (0 0 0)

forceCoeffs forceCoeffs write:
    Cm    = 0
    Cd    = 0
    Cl    = 0
    Cl(f) = 0
    Cl(r) = 0

Time = 0.18

Courant Number mean: 0.125934 max: 0.499249
smoothSolver:  Solving for Ux, Initial residual = 0.00452285, Final residual = 1.66272e-08, No Iterations 4
smoothSolver:  Solving for Uy, Initial residual = 0.00386239, Final residual = 2.69173e-08, No Iterations 4
DICPCG:  Solving for p, Initial residual = 0.00845394, Final residual = 7.80782e-08, No Iterations 133
time step continuity errors : sum local = 4.61903e-12, global = 8.7744e-14, cumulative = 1.00949e-11
DICPCG:  Solving for p, Initial residual = 0.00176495, Final residual = 8.63306e-08, No Iterations 123
time step continuity errors : sum local = 4.86073e-12, global = 8.95263e-15, cumulative = 1.01038e-11
ExecutionTime = 4.33 s  ClockTime = 8 s

forces forces write:
    sum of forces:
        pressure : (0.198236 0.225322 -2.45199e-19)
        viscous  : (0.452147 -0.0440069 -2.39736e-20)
        porous   : (0 0 0)
    sum of moments:
        pressure : (-2.88421e-19 -1.31703e-19 -0.335834)
        viscous  : (9.92478e-20 -2.69187e-19 -0.00892672)
        porous   : (0 0 0)

forceCoeffs forceCoeffs write:
    Cm    = 0
    Cd    = 0
    Cl    = 0
    Cl(f) = 0
    Cl(r) = 0

Time = 0.19

Courant Number mean: 0.125937 max: 0.49853
smoothSolver:  Solving for Ux, Initial residual = 0.0043013, Final residual = 1.56183e-08, No Iterations 4
smoothSolver:  Solving for Uy, Initial residual = 0.00369585, Final residual = 2.53141e-08, No Iterations 4
DICPCG:  Solving for p, Initial residual = 0.00810037, Final residual = 9.26341e-08, No Iterations 132
time step continuity errors : sum local = 5.23733e-12, global = 9.576e-14, cumulative = 1.01996e-11
DICPCG:  Solving for p, Initial residual = 0.00166858, Final residual = 9.11048e-08, No Iterations 118
time step continuity errors : sum local = 4.92406e-12, global = 1.64941e-14, cumulative = 1.02161e-11
ExecutionTime = 4.48 s  ClockTime = 8 s

forces forces write:
    sum of forces:
        pressure : (0.191745 0.222402 -2.47828e-19)
        viscous  : (0.43886 -0.0428096 -1.99317e-20)
        porous   : (0 0 0)
    sum of moments:
        pressure : (-2.82769e-19 -1.25563e-19 -0.335321)
        viscous  : (9.69209e-20 -2.61344e-19 -0.00889316)
        porous   : (0 0 0)

forceCoeffs forceCoeffs write:
    Cm    = 0
    Cd    = 0
    Cl    = 0
    Cl(f) = 0
    Cl(r) = 0

Time = 0.2

Courant Number mean: 0.12594 max: 0.497738
smoothSolver:  Solving for Ux, Initial residual = 0.00410625, Final residual = 1.47279e-08, No Iterations 4
smoothSolver:  Solving for Uy, Initial residual = 0.00354846, Final residual = 2.38952e-08, No Iterations 4
DICPCG:  Solving for p, Initial residual = 0.00749766, Final residual = 8.80267e-08, No Iterations 132
time step continuity errors : sum local = 4.77578e-12, global = 8.70623e-14, cumulative = 1.03032e-11
DICPCG:  Solving for p, Initial residual = 0.00154923, Final residual = 8.75641e-08, No Iterations 123
time step continuity errors : sum local = 4.56011e-12, global = -1.85854e-16, cumulative = 1.0303e-11
ExecutionTime = 4.62 s  ClockTime = 8 s

forces forces write:
    sum of forces:
        pressure : (0.185986 0.219579 -2.49858e-19)
        viscous  : (0.426768 -0.0417053 -1.64554e-20)
        porous   : (0 0 0)
    sum of moments:
        pressure : (-2.77627e-19 -1.20278e-19 -0.33485)
        viscous  : (9.47776e-20 -2.54337e-19 -0.00885998)
        porous   : (0 0 0)

forceCoeffs forceCoeffs write:
    Cm    = 0
    Cd    = 0
    Cl    = 0
    Cl(f) = 0
    Cl(r) = 0

Time = 0.21

Courant Number mean: 0.125943 max: 0.496887
smoothSolver:  Solving for Ux, Initial residual = 0.00393275, Final residual = 1.39365e-08, No Iterations 4
smoothSolver:  Solving for Uy, Initial residual = 0.00341677, Final residual = 2.26296e-08, No Iterations 4
DICPCG:  Solving for p, Initial residual = 0.00762579, Final residual = 8.52416e-08, No Iterations 132
time step continuity errors : sum local = 4.45322e-12, global = 8.07252e-14, cumulative = 1.03837e-11
DICPCG:  Solving for p, Initial residual = 0.00149368, Final residual = 8.76929e-08, No Iterations 124
time step continuity errors : sum local = 4.4117e-12, global = 1.98575e-14, cumulative = 1.04036e-11
ExecutionTime = 4.77 s  ClockTime = 8 s

forces forces write:
    sum of forces:
        pressure : (0.18086 0.216824 -2.51444e-19)
        viscous  : (0.415704 -0.040682 -1.34075e-20)
        porous   : (0 0 0)
    sum of moments:
        pressure : (-2.72897e-19 -1.15594e-19 -0.334429)
        viscous  : (9.27876e-20 -2.48104e-19 -0.0088258)
        porous   : (0 0 0)

forceCoeffs forceCoeffs write:
    Cm    = 0
    Cd    = 0
    Cl    = 0
    Cl(f) = 0
    Cl(r) = 0

Time = 0.22

Courant Number mean: 0.125945 max: 0.495988
smoothSolver:  Solving for Ux, Initial residual = 0.00377791, Final residual = 1.32275e-08, No Iterations 4
smoothSolver:  Solving for Uy, Initial residual = 0.00329872, Final residual = 2.14953e-08, No Iterations 4
DICPCG:  Solving for p, Initial residual = 0.00702313, Final residual = 8.15246e-08, No Iterations 132
time step continuity errors : sum local = 4.1146e-12, global = 7.03627e-14, cumulative = 1.04739e-11
DICPCG:  Solving for p, Initial residual = 0.00143467, Final residual = 8.58257e-08, No Iterations 124
time step continuity errors : sum local = 4.18557e-12, global = 9.72156e-15, cumulative = 1.04836e-11
ExecutionTime = 4.92 s  ClockTime = 8 s

forces forces write:
    sum of forces:
        pressure : (0.176241 0.214294 -2.5272e-19)
        viscous  : (0.405525 -0.0397331 -1.07592e-20)
        porous   : (0 0 0)
    sum of moments:
        pressure : (-2.68516e-19 -1.11432e-19 -0.334083)
        viscous  : (9.09737e-20 -2.42402e-19 -0.00879962)
        porous   : (0 0 0)

forceCoeffs forceCoeffs write:
    Cm    = 0
    Cd    = 0
    Cl    = 0
    Cl(f) = 0
    Cl(r) = 0

Time = 0.23

Courant Number mean: 0.125948 max: 0.49505
smoothSolver:  Solving for Ux, Initial residual = 0.00363903, Final residual = 1.25901e-08, No Iterations 4
smoothSolver:  Solving for Uy, Initial residual = 0.0031933, Final residual = 2.04617e-08, No Iterations 4
DICPCG:  Solving for p, Initial residual = 0.00686486, Final residual = 7.63111e-08, No Iterations 132
time step continuity errors : sum local = 3.7328e-12, global = 6.29543e-14, cumulative = 1.05466e-11
DICPCG:  Solving for p, Initial residual = 0.00132416, Final residual = 9.81337e-08, No Iterations 123
time step continuity errors : sum local = 4.65144e-12, global = 3.52001e-15, cumulative = 1.05501e-11
ExecutionTime = 5.06 s  ClockTime = 9 s

forces forces write:
    sum of forces:
        pressure : (0.172094 0.211922 -2.53735e-19)
        viscous  : (0.396121 -0.0388503 -8.39482e-21)
        porous   : (0 0 0)
    sum of moments:
        pressure : (-2.64505e-19 -1.0773e-19 -0.333752)
        viscous  : (8.92863e-20 -2.37292e-19 -0.00877514)
        porous   : (0 0 0)

forceCoeffs forceCoeffs write:
    Cm    = 0
    Cd    = 0
    Cl    = 0
    Cl(f) = 0
    Cl(r) = 0

Time = 0.24

Courant Number mean: 0.12595 max: 0.494082
smoothSolver:  Solving for Ux, Initial residual = 0.00351408, Final residual = 1.20193e-08, No Iterations 4
smoothSolver:  Solving for Uy, Initial residual = 0.00309808, Final residual = 1.95296e-08, No Iterations 4
DICPCG:  Solving for p, Initial residual = 0.00669228, Final residual = 9.37033e-08, No Iterations 131
time step continuity errors : sum local = 4.45423e-12, global = 5.28298e-14, cumulative = 1.06029e-11
DICPCG:  Solving for p, Initial residual = 0.00128053, Final residual = 9.3301e-08, No Iterations 123
time step continuity errors : sum local = 4.30806e-12, global = 5.82067e-15, cumulative = 1.06088e-11
ExecutionTime = 5.2 s  ClockTime = 9 s

forces forces write:
    sum of forces:
        pressure : (0.168336 0.209779 -2.54418e-19)
        viscous  : (0.387395 -0.0380254 -6.30027e-21)
        porous   : (0 0 0)
    sum of moments:
        pressure : (-2.60755e-19 -1.04593e-19 -0.333361)
        viscous  : (8.77136e-20 -2.32667e-19 -0.00875344)
        porous   : (0 0 0)

forceCoeffs forceCoeffs write:
    Cm    = 0
    Cd    = 0
    Cl    = 0
    Cl(f) = 0
    Cl(r) = 0

Time = 0.25

Courant Number mean: 0.125953 max: 0.493093
smoothSolver:  Solving for Ux, Initial residual = 0.00340059, Final residual = 1.15005e-08, No Iterations 4
smoothSolver:  Solving for Uy, Initial residual = 0.0030114, Final residual = 1.8679e-08, No Iterations 4
DICPCG:  Solving for p, Initial residual = 0.00658382, Final residual = 8.68176e-08, No Iterations 131
time step continuity errors : sum local = 4.01942e-12, global = 4.12337e-14, cumulative = 1.065e-11
DICPCG:  Solving for p, Initial residual = 0.00124801, Final residual = 9.60961e-08, No Iterations 118
time step continuity errors : sum local = 4.33096e-12, global = 1.2675e-14, cumulative = 1.06627e-11
ExecutionTime = 5.35 s  ClockTime = 9 s

forces forces write:
    sum of forces:
        pressure : (0.164941 0.207859 -2.54908e-19)
        viscous  : (0.379269 -0.0372515 -4.4018e-21)
        porous   : (0 0 0)
    sum of moments:
        pressure : (-2.57332e-19 -1.01903e-19 -0.332794)
        viscous  : (8.62467e-20 -2.28537e-19 -0.00873082)
        porous   : (0 0 0)

forceCoeffs forceCoeffs write:
    Cm    = 0
    Cd    = 0
    Cl    = 0
    Cl(f) = 0
    Cl(r) = 0

Time = 0.26

Courant Number mean: 0.125955 max: 0.492089
smoothSolver:  Solving for Ux, Initial residual = 0.00329706, Final residual = 1.10274e-08, No Iterations 4
smoothSolver:  Solving for Uy, Initial residual = 0.00293259, Final residual = 1.7902e-08, No Iterations 4
DICPCG:  Solving for p, Initial residual = 0.00624431, Final residual = 9.44593e-08, No Iterations 130
time step continuity errors : sum local = 4.26747e-12, global = 3.38754e-14, cumulative = 1.06966e-11
DICPCG:  Solving for p, Initial residual = 0.00118428, Final residual = 8.53654e-08, No Iterations 123
time step continuity errors : sum local = 3.76051e-12, global = 3.68269e-15, cumulative = 1.07002e-11
ExecutionTime = 5.49 s  ClockTime = 9 s

forces forces write:
    sum of forces:
        pressure : (0.16185 0.206057 -2.55386e-19)
        viscous  : (0.371676 -0.0365268 -2.64487e-21)
        porous   : (0 0 0)
    sum of moments:
        pressure : (-2.54136e-19 -9.93012e-20 -0.332381)
        viscous  : (8.49026e-20 -2.24758e-19 -0.00870898)
        porous   : (0 0 0)

forceCoeffs forceCoeffs write:
    Cm    = 0
    Cd    = 0
    Cl    = 0
    Cl(f) = 0
    Cl(r) = 0

Time = 0.27

Courant Number mean: 0.125957 max: 0.491076
smoothSolver:  Solving for Ux, Initial residual = 0.00320219, Final residual = 9.7199e-08, No Iterations 3
smoothSolver:  Solving for Uy, Initial residual = 0.00286008, Final residual = 1.7192e-08, No Iterations 4
DICPCG:  Solving for p, Initial residual = 0.0058387, Final residual = 8.91714e-08, No Iterations 130
time step continuity errors : sum local = 3.93729e-12, global = 3.03215e-14, cumulative = 1.07306e-11
DICPCG:  Solving for p, Initial residual = 0.00112235, Final residual = 8.379e-08, No Iterations 123
time step continuity errors : sum local = 3.61344e-12, global = 8.21921e-15, cumulative = 1.07388e-11
ExecutionTime = 5.64 s  ClockTime = 9 s

forces forces write:
    sum of forces:
        pressure : (0.158998 0.204301 -2.55696e-19)
        viscous  : (0.36456 -0.0358444 -1.07193e-21)
        porous   : (0 0 0)
    sum of moments:
        pressure : (-2.51124e-19 -9.69773e-20 -0.332)
        viscous  : (8.36349e-20 -2.21261e-19 -0.00868899)
        porous   : (0 0 0)

forceCoeffs forceCoeffs write:
    Cm    = 0
    Cd    = 0
    Cl    = 0
    Cl(f) = 0
    Cl(r) = 0

Time = 0.28

Courant Number mean: 0.125959 max: 0.490059
smoothSolver:  Solving for Ux, Initial residual = 0.00311462, Final residual = 9.37352e-08, No Iterations 3
smoothSolver:  Solving for Uy, Initial residual = 0.00279485, Final residual = 1.65391e-08, No Iterations 4
DICPCG:  Solving for p, Initial residual = 0.00567027, Final residual = 8.22498e-08, No Iterations 130
time step continuity errors : sum local = 3.55417e-12, global = 2.38715e-14, cumulative = 1.07626e-11
DICPCG:  Solving for p, Initial residual = 0.00107561, Final residual = 8.16033e-08, No Iterations 123
time step continuity errors : sum local = 3.44852e-12, global = 1.19098e-14, cumulative = 1.07746e-11
ExecutionTime = 5.79 s  ClockTime = 9 s

forces forces write:
    sum of forces:
        pressure : (0.156381 0.20262 -2.55802e-19)
        viscous  : (0.357871 -0.0352027 3.44644e-22)
        porous   : (0 0 0)
    sum of moments:
        pressure : (-2.48333e-19 -9.49323e-20 -0.331637)
        viscous  : (8.24493e-20 -2.18038e-19 -0.00867136)
        porous   : (0 0 0)

forceCoeffs forceCoeffs write:
    Cm    = 0
    Cd    = 0
    Cl    = 0
    Cl(f) = 0
    Cl(r) = 0

Time = 0.29

Courant Number mean: 0.125962 max: 0.489486
smoothSolver:  Solving for Ux, Initial residual = 0.00303327, Final residual = 9.05118e-08, No Iterations 3
smoothSolver:  Solving for Uy, Initial residual = 0.00273512, Final residual = 1.59346e-08, No Iterations 4
DICPCG:  Solving for p, Initial residual = 0.00556199, Final residual = 9.4405e-08, No Iterations 129
time step continuity errors : sum local = 3.99654e-12, global = 1.11801e-14, cumulative = 1.07857e-11
DICPCG:  Solving for p, Initial residual = 0.00105385, Final residual = 9.3996e-08, No Iterations 122
time step continuity errors : sum local = 3.89591e-12, global = 7.8579e-15, cumulative = 1.07936e-11
ExecutionTime = 5.92 s  ClockTime = 9 s

forces forces write:
    sum of forces:
        pressure : (0.153957 0.201052 -2.55823e-19)
        viscous  : (0.351569 -0.0345972 1.642e-21)
        porous   : (0 0 0)
    sum of moments:
        pressure : (-2.45741e-19 -9.30907e-20 -0.331269)
        viscous  : (8.13397e-20 -2.15066e-19 -0.00865541)
        porous   : (0 0 0)

forceCoeffs forceCoeffs write:
    Cm    = 0
    Cd    = 0
    Cl    = 0
    Cl(f) = 0
    Cl(r) = 0

Time = 0.3

Courant Number mean: 0.125964 max: 0.489167
smoothSolver:  Solving for Ux, Initial residual = 0.00295763, Final residual = 8.75073e-08, No Iterations 3
smoothSolver:  Solving for Uy, Initial residual = 0.00267923, Final residual = 1.53711e-08, No Iterations 4
DICPCG:  Solving for p, Initial residual = 0.00531735, Final residual = 9.01573e-08, No Iterations 129
time step continuity errors : sum local = 3.74334e-12, global = 8.4158e-15, cumulative = 1.0802e-11
DICPCG:  Solving for p, Initial residual = 0.00099925, Final residual = 9.44637e-08, No Iterations 122
time step continuity errors : sum local = 3.84475e-12, global = 6.09272e-15, cumulative = 1.08081e-11
ExecutionTime = 6.06 s  ClockTime = 10 s

forces forces write:
    sum of forces:
        pressure : (0.151715 0.199615 -2.55812e-19)
        viscous  : (0.345615 -0.0340263 2.84598e-21)
        porous   : (0 0 0)
    sum of moments:
        pressure : (-2.43276e-19 -9.13576e-20 -0.330906)
        viscous  : (8.02983e-20 -2.12325e-19 -0.00864179)
        porous   : (0 0 0)

forceCoeffs forceCoeffs write:
    Cm    = 0
    Cd    = 0
    Cl    = 0
    Cl(f) = 0
    Cl(r) = 0

Time = 0.31

Courant Number mean: 0.125966 max: 0.488824
smoothSolver:  Solving for Ux, Initial residual = 0.00288699, Final residual = 8.4707e-08, No Iterations 3
smoothSolver:  Solving for Uy, Initial residual = 0.00262702, Final residual = 1.4847e-08, No Iterations 4
DICPCG:  Solving for p, Initial residual = 0.00552571, Final residual = 8.45487e-08, No Iterations 129
time step continuity errors : sum local = 3.44547e-12, global = 8.11637e-15, cumulative = 1.08162e-11
DICPCG:  Solving for p, Initial residual = 0.000995066, Final residual = 8.72161e-08, No Iterations 122
time step continuity errors : sum local = 3.48625e-12, global = 4.71363e-15, cumulative = 1.08209e-11
ExecutionTime = 6.21 s  ClockTime = 10 s

forces forces write:
    sum of forces:
        pressure : (0.149658 0.198311 -2.5577e-19)
        viscous  : (0.339977 -0.0334871 3.97869e-21)
        porous   : (0 0 0)
    sum of moments:
        pressure : (-2.40977e-19 -8.97315e-20 -0.330533)
        viscous  : (7.93368e-20 -2.09814e-19 -0.00862949)
        porous   : (0 0 0)

forceCoeffs forceCoeffs write:
    Cm    = 0
    Cd    = 0
    Cl    = 0
    Cl(f) = 0
    Cl(r) = 0

Time = 0.32

Courant Number mean: 0.125968 max: 0.48846
smoothSolver:  Solving for Ux, Initial residual = 0.00282091, Final residual = 8.20898e-08, No Iterations 3
smoothSolver:  Solving for Uy, Initial residual = 0.00257797, Final residual = 1.43584e-08, No Iterations 4
DICPCG:  Solving for p, Initial residual = 0.00525809, Final residual = 7.79027e-08, No Iterations 129
time step continuity errors : sum local = 3.11827e-12, global = -5.15222e-15, cumulative = 1.08158e-11
DICPCG:  Solving for p, Initial residual = 0.000960529, Final residual = 8.25756e-08, No Iterations 122
time step continuity errors : sum local = 3.24568e-12, global = 9.45625e-15, cumulative = 1.08252e-11
ExecutionTime = 6.35 s  ClockTime = 10 s

forces forces write:
    sum of forces:
        pressure : (0.1477 0.197013 -2.55569e-19)
        viscous  : (0.33463 -0.0329744 4.9789e-21)
        porous   : (0 0 0)
    sum of moments:
        pressure : (-2.38731e-19 -8.83289e-20 -0.330216)
        viscous  : (7.83938e-20 -2.07432e-19 -0.00861768)
        porous   : (0 0 0)

forceCoeffs forceCoeffs write:
    Cm    = 0
    Cd    = 0
    Cl    = 0
    Cl(f) = 0
    Cl(r) = 0

Time = 0.33

Courant Number mean: 0.125971 max: 0.488079
smoothSolver:  Solving for Ux, Initial residual = 0.00275865, Final residual = 7.96271e-08, No Iterations 3
smoothSolver:  Solving for Uy, Initial residual = 0.00253155, Final residual = 1.38978e-08, No Iterations 4
DICPCG:  Solving for p, Initial residual = 0.00538346, Final residual = 9.76997e-08, No Iterations 128
time step continuity errors : sum local = 3.84524e-12, global = -1.66905e-14, cumulative = 1.08085e-11
DICPCG:  Solving for p, Initial residual = 0.000933316, Final residual = 8.29551e-08, No Iterations 122
time step continuity errors : sum local = 3.20872e-12, global = 1.01545e-14, cumulative = 1.08187e-11
ExecutionTime = 6.5 s  ClockTime = 10 s

forces forces write:
    sum of forces:
        pressure : (0.14587 0.195805 -2.55413e-19)
        viscous  : (0.329548 -0.0324871 5.93287e-21)
        porous   : (0 0 0)
    sum of moments:
        pressure : (-2.36649e-19 -8.69544e-20 -0.32994)
        viscous  : (7.75169e-20 -2.05214e-19 -0.0086067)
        porous   : (0 0 0)

forceCoeffs forceCoeffs write:
    Cm    = 0
    Cd    = 0
    Cl    = 0
    Cl(f) = 0
    Cl(r) = 0

Time = 0.34

Courant Number mean: 0.125973 max: 0.487684
smoothSolver:  Solving for Ux, Initial residual = 0.00270002, Final residual = 7.73094e-08, No Iterations 3
smoothSolver:  Solving for Uy, Initial residual = 0.00248765, Final residual = 1.34645e-08, No Iterations 4
DICPCG:  Solving for p, Initial residual = 0.00523084, Final residual = 8.4461e-08, No Iterations 128
time step continuity errors : sum local = 3.27229e-12, global = -2.11234e-14, cumulative = 1.07976e-11
DICPCG:  Solving for p, Initial residual = 0.000928565, Final residual = 9.77511e-08, No Iterations 117
time step continuity errors : sum local = 3.72637e-12, global = -1.04637e-14, cumulative = 1.07871e-11
ExecutionTime = 6.63 s  ClockTime = 10 s

forces forces write:
    sum of forces:
        pressure : (0.144139 0.19473 -2.55097e-19)
        viscous  : (0.32471 -0.0320222 6.78629e-21)
        porous   : (0 0 0)
    sum of moments:
        pressure : (-2.34669e-19 -8.5833e-20 -0.329605)
        viscous  : (7.66704e-20 -2.0313e-19 -0.00859667)
        porous   : (0 0 0)

forceCoeffs forceCoeffs write:
    Cm    = 0
    Cd    = 0
    Cl    = 0
    Cl(f) = 0
    Cl(r) = 0

Time = 0.35

Courant Number mean: 0.125975 max: 0.487276
smoothSolver:  Solving for Ux, Initial residual = 0.00264481, Final residual = 7.51239e-08, No Iterations 3
smoothSolver:  Solving for Uy, Initial residual = 0.00244694, Final residual = 1.30567e-08, No Iterations 4
DICPCG:  Solving for p, Initial residual = 0.00547427, Final residual = 9.35481e-08, No Iterations 126
time step continuity errors : sum local = 3.57108e-12, global = -3.20329e-14, cumulative = 1.07551e-11
DICPCG:  Solving for p, Initial residual = 0.000925907, Final residual = 9.20567e-08, No Iterations 119
time step continuity errors : sum local = 3.45974e-12, global = 4.34819e-15, cumulative = 1.07594e-11
ExecutionTime = 6.77 s  ClockTime = 10 s

forces forces write:
    sum of forces:
        pressure : (0.142554 0.193879 -2.54843e-19)
        viscous  : (0.320095 -0.0315782 7.65903e-21)
        porous   : (0 0 0)
    sum of moments:
        pressure : (-2.32921e-19 -8.47404e-20 -0.32914)
        viscous  : (7.59094e-20 -2.01278e-19 -0.0085872)
        porous   : (0 0 0)

forceCoeffs forceCoeffs write:
    Cm    = 0
    Cd    = 0
    Cl    = 0
    Cl(f) = 0
    Cl(r) = 0

Time = 0.36

Courant Number mean: 0.125978 max: 0.486859
smoothSolver:  Solving for Ux, Initial residual = 0.00259313, Final residual = 7.30643e-08, No Iterations 3
smoothSolver:  Solving for Uy, Initial residual = 0.002408, Final residual = 1.267e-08, No Iterations 4
DICPCG:  Solving for p, Initial residual = 0.00544411, Final residual = 9.70682e-08, No Iterations 126
time step continuity errors : sum local = 3.65109e-12, global = -3.50829e-14, cumulative = 1.07243e-11
DICPCG:  Solving for p, Initial residual = 0.000914591, Final residual = 8.53513e-08, No Iterations 119
time step continuity errors : sum local = 3.16064e-12, global = 1.2196e-14, cumulative = 1.07365e-11
ExecutionTime = 6.91 s  ClockTime = 10 s

forces forces write:
    sum of forces:
        pressure : (0.141068 0.192947 -2.54685e-19)
        viscous  : (0.315689 -0.0311541 8.49663e-21)
        porous   : (0 0 0)
    sum of moments:
        pressure : (-2.3127e-19 -8.35831e-20 -0.328864)
        viscous  : (7.52096e-20 -1.99513e-19 -0.00857878)
        porous   : (0 0 0)

forceCoeffs forceCoeffs write:
    Cm    = 0
    Cd    = 0
    Cl    = 0
    Cl(f) = 0
    Cl(r) = 0

Time = 0.37

Courant Number mean: 0.12598 max: 0.486433
smoothSolver:  Solving for Ux, Initial residual = 0.00254436, Final residual = 7.11193e-08, No Iterations 3
smoothSolver:  Solving for Uy, Initial residual = 0.00237033, Final residual = 1.23057e-08, No Iterations 4
DICPCG:  Solving for p, Initial residual = 0.00487515, Final residual = 9.7199e-08, No Iterations 126
time step continuity errors : sum local = 3.60371e-12, global = -3.60865e-14, cumulative = 1.07005e-11
DICPCG:  Solving for p, Initial residual = 0.000861412, Final residual = 8.9523e-08, No Iterations 118
time step continuity errors : sum local = 3.2709e-12, global = -4.75205e-15, cumulative = 1.06957e-11
ExecutionTime = 7.04 s  ClockTime = 11 s

forces forces write:
    sum of forces:
        pressure : (0.139652 0.192058 -2.54442e-19)
        viscous  : (0.311476 -0.0307475 9.26629e-21)
        porous   : (0 0 0)
    sum of moments:
        pressure : (-2.29646e-19 -8.25601e-20 -0.328554)
        viscous  : (7.45173e-20 -1.97862e-19 -0.00857008)
        porous   : (0 0 0)

forceCoeffs forceCoeffs write:
    Cm    = 0
    Cd    = 0
    Cl    = 0
    Cl(f) = 0
    Cl(r) = 0

Time = 0.38

Courant Number mean: 0.125983 max: 0.486001
smoothSolver:  Solving for Ux, Initial residual = 0.00249796, Final residual = 6.92777e-08, No Iterations 3
smoothSolver:  Solving for Uy, Initial residual = 0.00233519, Final residual = 1.19635e-08, No Iterations 4
DICPCG:  Solving for p, Initial residual = 0.00483853, Final residual = 9.41027e-08, No Iterations 125
time step continuity errors : sum local = 3.44154e-12, global = -5.31123e-14, cumulative = 1.06426e-11
DICPCG:  Solving for p, Initial residual = 0.000843603, Final residual = 8.24501e-08, No Iterations 119
time step continuity errors : sum local = 2.97254e-12, global = -6.49549e-15, cumulative = 1.06361e-11
ExecutionTime = 7.19 s  ClockTime = 11 s

forces forces write:
    sum of forces:
        pressure : (0.138291 0.191135 -2.54143e-19)
        viscous  : (0.307443 -0.0303576 9.9563e-21)
        porous   : (0 0 0)
    sum of moments:
        pressure : (-2.28057e-19 -8.1628e-20 -0.328328)
        viscous  : (7.38357e-20 -1.9626e-19 -0.00856071)
        porous   : (0 0 0)

forceCoeffs forceCoeffs write:
    Cm    = 0
    Cd    = 0
    Cl    = 0
    Cl(f) = 0
    Cl(r) = 0

Time = 0.39

Courant Number mean: 0.125985 max: 0.485565
smoothSolver:  Solving for Ux, Initial residual = 0.00245361, Final residual = 6.7518e-08, No Iterations 3
smoothSolver:  Solving for Uy, Initial residual = 0.00230121, Final residual = 1.16378e-08, No Iterations 4
DICPCG:  Solving for p, Initial residual = 0.00500782, Final residual = 9.02881e-08, No Iterations 125
time step continuity errors : sum local = 3.25697e-12, global = -5.17088e-14, cumulative = 1.05844e-11
DICPCG:  Solving for p, Initial residual = 0.000867444, Final residual = 8.53164e-08, No Iterations 117
time step continuity errors : sum local = 3.03432e-12, global = -6.83817e-15, cumulative = 1.05775e-11
ExecutionTime = 7.32 s  ClockTime = 11 s

forces forces write:
    sum of forces:
        pressure : (0.137063 0.190359 -2.54009e-19)
        viscous  : (0.303576 -0.0299839 1.0713e-20)
        porous   : (0 0 0)
    sum of moments:
        pressure : (-2.26647e-19 -8.05804e-20 -0.328009)
        viscous  : (7.3239e-20 -1.94877e-19 -0.00855217)
        porous   : (0 0 0)

forceCoeffs forceCoeffs write:
    Cm    = 0
    Cd    = 0
    Cl    = 0
    Cl(f) = 0
    Cl(r) = 0

Time = 0.4

Courant Number mean: 0.125988 max: 0.485126
smoothSolver:  Solving for Ux, Initial residual = 0.00241149, Final residual = 6.58359e-08, No Iterations 3
smoothSolver:  Solving for Uy, Initial residual = 0.00226822, Final residual = 1.13301e-08, No Iterations 4
DICPCG:  Solving for p, Initial residual = 0.00456097, Final residual = 9.50615e-08, No Iterations 124
time step continuity errors : sum local = 3.38438e-12, global = -3.56217e-14, cumulative = 1.05419e-11
DICPCG:  Solving for p, Initial residual = 0.000809266, Final residual = 8.56001e-08, No Iterations 112
time step continuity errors : sum local = 3.00754e-12, global = 2.67658e-14, cumulative = 1.05687e-11
ExecutionTime = 7.46 s  ClockTime = 11 s

forces forces write:
    sum of forces:
        pressure : (0.135833 0.189638 -2.53701e-19)
        viscous  : (0.299865 -0.0296253 1.13227e-20)
        porous   : (0 0 0)
    sum of moments:
        pressure : (-2.25244e-19 -7.97525e-20 -0.327761)
        viscous  : (7.26329e-20 -1.93452e-19 -0.00854411)
        porous   : (0 0 0)

forceCoeffs forceCoeffs write:
    Cm    = 0
    Cd    = 0
    Cl    = 0
    Cl(f) = 0
    Cl(r) = 0

Time = 0.41

Courant Number mean: 0.12599 max: 0.484685
smoothSolver:  Solving for Ux, Initial residual = 0.00237123, Final residual = 6.42276e-08, No Iterations 3
smoothSolver:  Solving for Uy, Initial residual = 0.00223746, Final residual = 1.10347e-08, No Iterations 4
DICPCG:  Solving for p, Initial residual = 0.00455844, Final residual = 8.14068e-08, No Iterations 125
time step continuity errors : sum local = 2.86241e-12, global = -5.10402e-14, cumulative = 1.05177e-11
DICPCG:  Solving for p, Initial residual = 0.000794916, Final residual = 9.14504e-08, No Iterations 111
time step continuity errors : sum local = 3.17413e-12, global = 3.54925e-14, cumulative = 1.05531e-11
ExecutionTime = 7.59 s  ClockTime = 11 s

forces forces write:
    sum of forces:
        pressure : (0.134693 0.189009 -2.53435e-19)
        viscous  : (0.296298 -0.0292796 1.19599e-20)
        porous   : (0 0 0)
    sum of moments:
        pressure : (-2.23957e-19 -7.89312e-20 -0.327467)
        viscous  : (7.20773e-20 -1.92171e-19 -0.00853704)
        porous   : (0 0 0)

forceCoeffs forceCoeffs write:
    Cm    = 0
    Cd    = 0
    Cl    = 0
    Cl(f) = 0
    Cl(r) = 0

Time = 0.42

Courant Number mean: 0.125993 max: 0.484243
smoothSolver:  Solving for Ux, Initial residual = 0.00233274, Final residual = 6.26889e-08, No Iterations 3
smoothSolver:  Solving for Uy, Initial residual = 0.00220786, Final residual = 1.0753e-08, No Iterations 4
DICPCG:  Solving for p, Initial residual = 0.00466255, Final residual = 8.13498e-08, No Iterations 125
time step continuity errors : sum local = 2.82626e-12, global = -4.74583e-14, cumulative = 1.05057e-11
DICPCG:  Solving for p, Initial residual = 0.000777459, Final residual = 9.70184e-08, No Iterations 112
time step continuity errors : sum local = 3.32911e-12, global = 3.96011e-14, cumulative = 1.05453e-11
ExecutionTime = 7.72 s  ClockTime = 11 s

forces forces write:
    sum of forces:
        pressure : (0.133593 0.188403 -2.53163e-19)
        viscous  : (0.292867 -0.0289455 1.2548e-20)
        porous   : (0 0 0)
    sum of moments:
        pressure : (-2.22731e-19 -7.81655e-20 -0.327181)
        viscous  : (7.15364e-20 -1.90941e-19 -0.0085313)
        porous   : (0 0 0)

forceCoeffs forceCoeffs write:
    Cm    = 0
    Cd    = 0
    Cl    = 0
    Cl(f) = 0
    Cl(r) = 0

Time = 0.43

Courant Number mean: 0.125995 max: 0.483802
smoothSolver:  Solving for Ux, Initial residual = 0.00229565, Final residual = 6.1208e-08, No Iterations 3
smoothSolver:  Solving for Uy, Initial residual = 0.00217979, Final residual = 9.89518e-08, No Iterations 3
DICPCG:  Solving for p, Initial residual = 0.00459458, Final residual = 9.46205e-08, No Iterations 125
time step continuity errors : sum local = 3.25137e-12, global = -5.55325e-14, cumulative = 1.04898e-11
DICPCG:  Solving for p, Initial residual = 0.000771329, Final residual = 8.4718e-08, No Iterations 112
time step continuity errors : sum local = 2.87759e-12, global = 4.15436e-14, cumulative = 1.05313e-11
ExecutionTime = 7.87 s  ClockTime = 11 s

forces forces write:
    sum of forces:
        pressure : (0.132514 0.18785 -2.52818e-19)
        viscous  : (0.289563 -0.0286235 1.30704e-20)
        porous   : (0 0 0)
    sum of moments:
        pressure : (-2.21507e-19 -7.75218e-20 -0.326961)
        viscous  : (7.09952e-20 -1.89733e-19 -0.00852524)
        porous   : (0 0 0)

forceCoeffs forceCoeffs write:
    Cm    = 0
    Cd    = 0
    Cl    = 0
    Cl(f) = 0
    Cl(r) = 0

Time = 0.44

Courant Number mean: 0.125998 max: 0.483362
smoothSolver:  Solving for Ux, Initial residual = 0.00225984, Final residual = 5.97842e-08, No Iterations 3
smoothSolver:  Solving for Uy, Initial residual = 0.00215329, Final residual = 9.67275e-08, No Iterations 3
DICPCG:  Solving for p, Initial residual = 0.00509294, Final residual = 9.4271e-08, No Iterations 126
time step continuity errors : sum local = 3.20461e-12, global = -3.30546e-14, cumulative = 1.04982e-11
DICPCG:  Solving for p, Initial residual = 0.000800953, Final residual = 8.45809e-08, No Iterations 111
time step continuity errors : sum local = 2.84154e-12, global = 3.10768e-14, cumulative = 1.05293e-11
ExecutionTime = 8.01 s  ClockTime = 12 s

forces forces write:
    sum of forces:
        pressure : (0.131519 0.187276 -2.52569e-19)
        viscous  : (0.286379 -0.0283124 1.36096e-20)
        porous   : (0 0 0)
    sum of moments:
        pressure : (-2.20345e-19 -7.68124e-20 -0.326755)
        viscous  : (7.05006e-20 -1.88628e-19 -0.00851989)
        porous   : (0 0 0)

forceCoeffs forceCoeffs write:
    Cm    = 0
    Cd    = 0
    Cl    = 0
    Cl(f) = 0
    Cl(r) = 0

Time = 0.45

Courant Number mean: 0.126 max: 0.482925
smoothSolver:  Solving for Ux, Initial residual = 0.00222556, Final residual = 5.8418e-08, No Iterations 3
smoothSolver:  Solving for Uy, Initial residual = 0.00212829, Final residual = 9.4592e-08, No Iterations 3
DICPCG:  Solving for p, Initial residual = 0.0048587, Final residual = 8.70679e-08, No Iterations 127
time step continuity errors : sum local = 2.92763e-12, global = -3.75763e-15, cumulative = 1.05256e-11
DICPCG:  Solving for p, Initial residual = 0.000812964, Final residual = 8.20382e-08, No Iterations 119
time step continuity errors : sum local = 2.72739e-12, global = -2.04884e-14, cumulative = 1.05051e-11
ExecutionTime = 8.15 s  ClockTime = 12 s

forces forces write:
    sum of forces:
        pressure : (0.130552 0.186744 -2.52258e-19)
        viscous  : (0.283307 -0.028012 1.40708e-20)
        porous   : (0 0 0)
    sum of moments:
        pressure : (-2.19203e-19 -7.62184e-20 -0.326579)
        viscous  : (7.00078e-20 -1.87549e-19 -0.00851399)
        porous   : (0 0 0)

forceCoeffs forceCoeffs write:
    Cm    = 0
    Cd    = 0
    Cl    = 0
    Cl(f) = 0
    Cl(r) = 0

Time = 0.46

Courant Number mean: 0.126003 max: 0.482491
smoothSolver:  Solving for Ux, Initial residual = 0.0021926, Final residual = 5.71001e-08, No Iterations 3
smoothSolver:  Solving for Uy, Initial residual = 0.00210537, Final residual = 9.25386e-08, No Iterations 3
DICPCG:  Solving for p, Initial residual = 0.00456306, Final residual = 9.60445e-08, No Iterations 126
time step continuity errors : sum local = 3.19521e-12, global = -3.16917e-14, cumulative = 1.04734e-11
DICPCG:  Solving for p, Initial residual = 0.000762003, Final residual = 9.49028e-08, No Iterations 117
time step continuity errors : sum local = 3.12188e-12, global = -1.15122e-14, cumulative = 1.04619e-11
ExecutionTime = 8.28 s  ClockTime = 12 s

forces forces write:
    sum of forces:
        pressure : (0.129665 0.186287 -2.52074e-19)
        viscous  : (0.280341 -0.0277214 1.46081e-20)
        porous   : (0 0 0)
    sum of moments:
        pressure : (-2.18208e-19 -7.55118e-20 -0.326337)
        viscous  : (6.95774e-20 -1.86605e-19 -0.0085093)
        porous   : (0 0 0)

forceCoeffs forceCoeffs write:
    Cm    = 0
    Cd    = 0
    Cl    = 0
    Cl(f) = 0
    Cl(r) = 0

Time = 0.47

Courant Number mean: 0.126006 max: 0.48206
smoothSolver:  Solving for Ux, Initial residual = 0.00216096, Final residual = 5.58358e-08, No Iterations 3
smoothSolver:  Solving for Uy, Initial residual = 0.00208227, Final residual = 9.05798e-08, No Iterations 3
DICPCG:  Solving for p, Initial residual = 0.00423571, Final residual = 9.40759e-08, No Iterations 126
time step continuity errors : sum local = 3.09723e-12, global = -3.1133e-14, cumulative = 1.04307e-11
DICPCG:  Solving for p, Initial residual = 0.000718747, Final residual = 8.20388e-08, No Iterations 118
time step continuity errors : sum local = 2.67175e-12, global = -1.78112e-14, cumulative = 1.04129e-11
ExecutionTime = 8.43 s  ClockTime = 12 s

forces forces write:
    sum of forces:
        pressure : (0.128797 0.185863 -2.51868e-19)
        viscous  : (0.277475 -0.02744 1.50965e-20)
        porous   : (0 0 0)
    sum of moments:
        pressure : (-2.1725e-19 -7.48578e-20 -0.326122)
        viscous  : (6.91558e-20 -1.85681e-19 -0.00850566)
        porous   : (0 0 0)

forceCoeffs forceCoeffs write:
    Cm    = 0
    Cd    = 0
    Cl    = 0
    Cl(f) = 0
    Cl(r) = 0

Time = 0.48

Courant Number mean: 0.126009 max: 0.481635
smoothSolver:  Solving for Ux, Initial residual = 0.00213033, Final residual = 5.4622e-08, No Iterations 3
smoothSolver:  Solving for Uy, Initial residual = 0.00206026, Final residual = 8.87044e-08, No Iterations 3
DICPCG:  Solving for p, Initial residual = 0.00391035, Final residual = 8.58388e-08, No Iterations 127
time step continuity errors : sum local = 2.79795e-12, global = -1.90258e-14, cumulative = 1.03939e-11
DICPCG:  Solving for p, Initial residual = 0.00069278, Final residual = 9.25268e-08, No Iterations 118
time step continuity errors : sum local = 2.98455e-12, global = -3.08579e-14, cumulative = 1.0363e-11
ExecutionTime = 8.58 s  ClockTime = 12 s

forces forces write:
    sum of forces:
        pressure : (0.127962 0.185483 -2.51632e-19)
        viscous  : (0.274703 -0.0271672 1.55627e-20)
        porous   : (0 0 0)
    sum of moments:
        pressure : (-2.16321e-19 -7.42697e-20 -0.325876)
        viscous  : (6.87464e-20 -1.84808e-19 -0.00850343)
        porous   : (0 0 0)

forceCoeffs forceCoeffs write:
    Cm    = 0
    Cd    = 0
    Cl    = 0
    Cl(f) = 0
    Cl(r) = 0

Time = 0.49

Courant Number mean: 0.126011 max: 0.481246
smoothSolver:  Solving for Ux, Initial residual = 0.00210069, Final residual = 5.34506e-08, No Iterations 3
smoothSolver:  Solving for Uy, Initial residual = 0.00203874, Final residual = 8.69063e-08, No Iterations 3
DICPCG:  Solving for p, Initial residual = 0.00423228, Final residual = 8.40481e-08, No Iterations 127
time step continuity errors : sum local = 2.71293e-12, global = -1.70932e-14, cumulative = 1.0346e-11
DICPCG:  Solving for p, Initial residual = 0.000711443, Final residual = 9.00296e-08, No Iterations 118
time step continuity errors : sum local = 2.87602e-12, global = -2.80687e-14, cumulative = 1.03179e-11
ExecutionTime = 8.71 s  ClockTime = 12 s

forces forces write:
    sum of forces:
        pressure : (0.127175 0.185153 -2.51452e-19)
        viscous  : (0.272021 -0.0269028 1.60352e-20)
        porous   : (0 0 0)
    sum of moments:
        pressure : (-2.15458e-19 -7.36584e-20 -0.325653)
        viscous  : (6.83663e-20 -1.84011e-19 -0.00850136)
        porous   : (0 0 0)

forceCoeffs forceCoeffs write:
    Cm    = 0
    Cd    = 0
    Cl    = 0
    Cl(f) = 0
    Cl(r) = 0

Time = 0.5

Courant Number mean: 0.126014 max: 0.481068
smoothSolver:  Solving for Ux, Initial residual = 0.00207217, Final residual = 5.23334e-08, No Iterations 3
smoothSolver:  Solving for Uy, Initial residual = 0.00201777, Final residual = 8.5172e-08, No Iterations 3
DICPCG:  Solving for p, Initial residual = 0.00412239, Final residual = 8.88767e-08, No Iterations 127
time step continuity errors : sum local = 2.84125e-12, global = -1.98649e-14, cumulative = 1.0298e-11
DICPCG:  Solving for p, Initial residual = 0.00068915, Final residual = 9.26407e-08, No Iterations 118
time step continuity errors : sum local = 2.93186e-12, global = -3.57975e-14, cumulative = 1.02622e-11
ExecutionTime = 8.86 s  ClockTime = 12 s

forces forces write:
    sum of forces:
        pressure : (0.126403 0.184836 -2.51257e-19)
        viscous  : (0.269424 -0.0266465 1.64708e-20)
        porous   : (0 0 0)
    sum of moments:
        pressure : (-2.14616e-19 -7.30956e-20 -0.325454)
        viscous  : (6.79913e-20 -1.83228e-19 -0.00849918)
        porous   : (0 0 0)

forceCoeffs forceCoeffs write:
    Cm    = 0
    Cd    = 0
    Cl    = 0
    Cl(f) = 0
    Cl(r) = 0

Time = 0.51

Courant Number mean: 0.126017 max: 0.480887
smoothSolver:  Solving for Ux, Initial residual = 0.00204457, Final residual = 5.12469e-08, No Iterations 3
smoothSolver:  Solving for Uy, Initial residual = 0.00199745, Final residual = 8.35057e-08, No Iterations 3
DICPCG:  Solving for p, Initial residual = 0.00446302, Final residual = 8.67337e-08, No Iterations 127
time step continuity errors : sum local = 2.74665e-12, global = -1.9868e-14, cumulative = 1.02424e-11
DICPCG:  Solving for p, Initial residual = 0.000712378, Final residual = 9.30214e-08, No Iterations 118
time step continuity errors : sum local = 2.91673e-12, global = -3.64446e-14, cumulative = 1.02059e-11
ExecutionTime = 9 s  ClockTime = 13 s

forces forces write:
    sum of forces:
        pressure : (0.125682 0.184583 -2.51087e-19)
        viscous  : (0.266907 -0.0263978 1.69221e-20)
        porous   : (0 0 0)
    sum of moments:
        pressure : (-2.13842e-19 -7.25244e-20 -0.325194)
        viscous  : (6.76465e-20 -1.82524e-19 -0.00849726)
        porous   : (0 0 0)

forceCoeffs forceCoeffs write:
    Cm    = 0
    Cd    = 0
    Cl    = 0
    Cl(f) = 0
    Cl(r) = 0

Time = 0.52

Courant Number mean: 0.12602 max: 0.480704
smoothSolver:  Solving for Ux, Initial residual = 0.00201823, Final residual = 5.02055e-08, No Iterations 3
smoothSolver:  Solving for Uy, Initial residual = 0.00197738, Final residual = 8.18988e-08, No Iterations 3
DICPCG:  Solving for p, Initial residual = 0.00425808, Final residual = 8.6944e-08, No Iterations 127
time step continuity errors : sum local = 2.7285e-12, global = -1.62619e-14, cumulative = 1.01896e-11
DICPCG:  Solving for p, Initial residual = 0.000672811, Final residual = 8.69784e-08, No Iterations 118
time step continuity errors : sum local = 2.70387e-12, global = -3.96702e-14, cumulative = 1.015e-11
ExecutionTime = 9.15 s  ClockTime = 13 s

forces forces write:
    sum of forces:
        pressure : (0.12496 0.184272 -2.50855e-19)
        viscous  : (0.264466 -0.0261562 1.73031e-20)
        porous   : (0 0 0)
    sum of moments:
        pressure : (-2.13039e-19 -7.20283e-20 -0.325035)
        viscous  : (6.72901e-20 -1.8179e-19 -0.00849475)
        porous   : (0 0 0)

forceCoeffs forceCoeffs write:
    Cm    = 0
    Cd    = 0
    Cl    = 0
    Cl(f) = 0
    Cl(r) = 0

Time = 0.53

Courant Number mean: 0.126023 max: 0.480518
smoothSolver:  Solving for Ux, Initial residual = 0.00199276, Final residual = 4.9194e-08, No Iterations 3
smoothSolver:  Solving for Uy, Initial residual = 0.00195856, Final residual = 8.03626e-08, No Iterations 3
DICPCG:  Solving for p, Initial residual = 0.00472685, Final residual = 9.60432e-08, No Iterations 127
time step continuity errors : sum local = 2.98617e-12, global = -4.75893e-15, cumulative = 1.01452e-11
DICPCG:  Solving for p, Initial residual = 0.000706024, Final residual = 9.74756e-08, No Iterations 112
time step continuity errors : sum local = 3.00057e-12, global = 3.38619e-14, cumulative = 1.01791e-11
ExecutionTime = 9.28 s  ClockTime = 13 s

forces forces write:
    sum of forces:
        pressure : (0.124291 0.183954 -2.50734e-19)
        viscous  : (0.262098 -0.0259217 1.77115e-20)
        porous   : (0 0 0)
    sum of moments:
        pressure : (-2.12248e-19 -7.14682e-20 -0.324949)
        viscous  : (6.69638e-20 -1.81124e-19 -0.00849209)
        porous   : (0 0 0)

forceCoeffs forceCoeffs write:
    Cm    = 0
    Cd    = 0
    Cl    = 0
    Cl(f) = 0
    Cl(r) = 0

Time = 0.54

Courant Number mean: 0.126026 max: 0.480332
smoothSolver:  Solving for Ux, Initial residual = 0.00196832, Final residual = 4.82082e-08, No Iterations 3
smoothSolver:  Solving for Uy, Initial residual = 0.0019401, Final residual = 7.88654e-08, No Iterations 3
DICPCG:  Solving for p, Initial residual = 0.00430162, Final residual = 9.44323e-08, No Iterations 127
time step continuity errors : sum local = 2.90898e-12, global = -2.30594e-14, cumulative = 1.0156e-11
DICPCG:  Solving for p, Initial residual = 0.000660071, Final residual = 9.96474e-08, No Iterations 117
time step continuity errors : sum local = 3.04143e-12, global = -3.97668e-14, cumulative = 1.01163e-11
ExecutionTime = 9.42 s  ClockTime = 13 s

forces forces write:
    sum of forces:
        pressure : (0.123621 0.1837 -2.50537e-19)
        viscous  : (0.259799 -0.025695 1.80764e-20)
        porous   : (0 0 0)
    sum of moments:
        pressure : (-2.11487e-19 -7.09868e-20 -0.324841)
        viscous  : (6.66375e-20 -1.80456e-19 -0.00848939)
        porous   : (0 0 0)

forceCoeffs forceCoeffs write:
    Cm    = 0
    Cd    = 0
    Cl    = 0
    Cl(f) = 0
    Cl(r) = 0

Time = 0.55

Courant Number mean: 0.126029 max: 0.480145
smoothSolver:  Solving for Ux, Initial residual = 0.00194448, Final residual = 4.7254e-08, No Iterations 3
smoothSolver:  Solving for Uy, Initial residual = 0.00192211, Final residual = 7.74348e-08, No Iterations 3
DICPCG:  Solving for p, Initial residual = 0.00433218, Final residual = 8.92107e-08, No Iterations 126
time step continuity errors : sum local = 2.72406e-12, global = -1.40055e-14, cumulative = 1.01022e-11
DICPCG:  Solving for p, Initial residual = 0.000691284, Final residual = 9.57105e-08, No Iterations 118
time step continuity errors : sum local = 2.89565e-12, global = -4.84494e-14, cumulative = 1.00538e-11
ExecutionTime = 9.56 s  ClockTime = 13 s

forces forces write:
    sum of forces:
        pressure : (0.123008 0.183523 -2.50339e-19)
        viscous  : (0.257564 -0.0254744 1.84644e-20)
        porous   : (0 0 0)
    sum of moments:
        pressure : (-2.10837e-19 -7.05535e-20 -0.324593)
        viscous  : (6.63402e-20 -1.79894e-19 -0.0084865)
        porous   : (0 0 0)

forceCoeffs forceCoeffs write:
    Cm    = 0
    Cd    = 0
    Cl    = 0
    Cl(f) = 0
    Cl(r) = 0

Time = 0.56

Courant Number mean: 0.126032 max: 0.479958
smoothSolver:  Solving for Ux, Initial residual = 0.00192171, Final residual = 4.63342e-08, No Iterations 3
smoothSolver:  Solving for Uy, Initial residual = 0.00190438, Final residual = 7.605e-08, No Iterations 3
DICPCG:  Solving for p, Initial residual = 0.00403635, Final residual = 8.84785e-08, No Iterations 127
time step continuity errors : sum local = 2.67949e-12, global = -1.63337e-14, cumulative = 1.00375e-11
DICPCG:  Solving for p, Initial residual = 0.000644906, Final residual = 8.23673e-08, No Iterations 118
time step continuity errors : sum local = 2.47323e-12, global = -3.65596e-14, cumulative = 1.00009e-11
ExecutionTime = 9.7 s  ClockTime = 13 s

forces forces write:
    sum of forces:
        pressure : (0.122372 0.183267 -2.50138e-19)
        viscous  : (0.255393 -0.0252608 1.87826e-20)
        porous   : (0 0 0)
    sum of moments:
        pressure : (-2.10128e-19 -7.0127e-20 -0.324501)
        viscous  : (6.60253e-20 -1.79271e-19 -0.00848295)
        porous   : (0 0 0)

forceCoeffs forceCoeffs write:
    Cm    = 0
    Cd    = 0
    Cl    = 0
    Cl(f) = 0
    Cl(r) = 0

Time = 0.57

Courant Number mean: 0.126035 max: 0.47977
smoothSolver:  Solving for Ux, Initial residual = 0.00189931, Final residual = 4.54411e-08, No Iterations 3
smoothSolver:  Solving for Uy, Initial residual = 0.00188751, Final residual = 7.4736e-08, No Iterations 3
DICPCG:  Solving for p, Initial residual = 0.00409067, Final residual = 9.03802e-08, No Iterations 127
time step continuity errors : sum local = 2.71636e-12, global = -1.96031e-14, cumulative = 9.9813e-12
DICPCG:  Solving for p, Initial residual = 0.000630468, Final residual = 8.74474e-08, No Iterations 118
time step continuity errors : sum local = 2.60636e-12, global = -4.34403e-14, cumulative = 9.93786e-12
ExecutionTime = 9.84 s  ClockTime = 13 s

forces forces write:
    sum of forces:
        pressure : (0.121766 0.183059 -2.49931e-19)
        viscous  : (0.253281 -0.0250519 1.91041e-20)
        porous   : (0 0 0)
    sum of moments:
        pressure : (-2.09476e-19 -6.97277e-20 -0.324382)
        viscous  : (6.57307e-20 -1.78695e-19 -0.00847925)
        porous   : (0 0 0)

forceCoeffs forceCoeffs write:
    Cm    = 0
    Cd    = 0
    Cl    = 0
    Cl(f) = 0
    Cl(r) = 0

Time = 0.58

Courant Number mean: 0.126038 max: 0.479583
smoothSolver:  Solving for Ux, Initial residual = 0.00187764, Final residual = 4.45733e-08, No Iterations 3
smoothSolver:  Solving for Uy, Initial residual = 0.00187081, Final residual = 7.35049e-08, No Iterations 3
DICPCG:  Solving for p, Initial residual = 0.00428984, Final residual = 9.15918e-08, No Iterations 127
time step continuity errors : sum local = 2.73231e-12, global = -1.85294e-14, cumulative = 9.91933e-12
DICPCG:  Solving for p, Initial residual = 0.000634963, Final residual = 8.7837e-08, No Iterations 118
time step continuity errors : sum local = 2.59877e-12, global = -4.56296e-14, cumulative = 9.8737e-12
ExecutionTime = 9.99 s  ClockTime = 14 s

forces forces write:
    sum of forces:
        pressure : (0.121197 0.1829 -2.49784e-19)
        viscous  : (0.251226 -0.024848 1.94436e-20)
        porous   : (0 0 0)
    sum of moments:
        pressure : (-2.08873e-19 -6.93023e-20 -0.32424)
        viscous  : (6.54587e-20 -1.78175e-19 -0.0084761)
        porous   : (0 0 0)

forceCoeffs forceCoeffs write:
    Cm    = 0
    Cd    = 0
    Cl    = 0
    Cl(f) = 0
    Cl(r) = 0

Time = 0.59

Courant Number mean: 0.126041 max: 0.479397
smoothSolver:  Solving for Ux, Initial residual = 0.00185674, Final residual = 4.37288e-08, No Iterations 3
smoothSolver:  Solving for Uy, Initial residual = 0.00185443, Final residual = 7.23256e-08, No Iterations 3
DICPCG:  Solving for p, Initial residual = 0.00406901, Final residual = 8.72837e-08, No Iterations 127
time step continuity errors : sum local = 2.58398e-12, global = -2.01171e-14, cumulative = 9.85358e-12
DICPCG:  Solving for p, Initial residual = 0.000655027, Final residual = 8.51986e-08, No Iterations 118
time step continuity errors : sum local = 2.50123e-12, global = -5.00994e-14, cumulative = 9.80348e-12
ExecutionTime = 10.13 s  ClockTime = 14 s

forces forces write:
    sum of forces:
        pressure : (0.120658 0.182798 -2.49715e-19)
        viscous  : (0.249226 -0.0246487 1.98046e-20)
        porous   : (0 0 0)
    sum of moments:
        pressure : (-2.08325e-19 -6.88213e-20 -0.324092)
        viscous  : (6.52146e-20 -1.77713e-19 -0.00847316)
        porous   : (0 0 0)

forceCoeffs forceCoeffs write:
    Cm    = 0
    Cd    = 0
    Cl    = 0
    Cl(f) = 0
    Cl(r) = 0

Time = 0.6

Courant Number mean: 0.126044 max: 0.479212
smoothSolver:  Solving for Ux, Initial residual = 0.00183653, Final residual = 4.29147e-08, No Iterations 3
smoothSolver:  Solving for Uy, Initial residual = 0.00183875, Final residual = 7.1219e-08, No Iterations 3
DICPCG:  Solving for p, Initial residual = 0.00401123, Final residual = 8.72595e-08, No Iterations 127
time step continuity errors : sum local = 2.56397e-12, global = -1.94946e-14, cumulative = 9.78399e-12
DICPCG:  Solving for p, Initial residual = 0.00061963, Final residual = 8.59167e-08, No Iterations 118
time step continuity errors : sum local = 2.50454e-12, global = -4.57735e-14, cumulative = 9.73822e-12
ExecutionTime = 10.26 s  ClockTime = 14 s

forces forces write:
    sum of forces:
        pressure : (0.120125 0.182675 -2.49611e-19)
        viscous  : (0.247278 -0.0244538 2.01246e-20)
        porous   : (0 0 0)
    sum of moments:
        pressure : (-2.07757e-19 -6.83935e-20 -0.323985)
        viscous  : (6.4964e-20 -1.77242e-19 -0.00847046)
        porous   : (0 0 0)

forceCoeffs forceCoeffs write:
    Cm    = 0
    Cd    = 0
    Cl    = 0
    Cl(f) = 0
    Cl(r) = 0

Time = 0.61

Courant Number mean: 0.126047 max: 0.479029
smoothSolver:  Solving for Ux, Initial residual = 0.00181678, Final residual = 4.2121e-08, No Iterations 3
smoothSolver:  Solving for Uy, Initial residual = 0.00182391, Final residual = 7.01891e-08, No Iterations 3
DICPCG:  Solving for p, Initial residual = 0.00410923, Final residual = 8.54803e-08, No Iterations 127
time step continuity errors : sum local = 2.4926e-12, global = -2.65302e-14, cumulative = 9.71169e-12
DICPCG:  Solving for p, Initial residual = 0.000660897, Final residual = 8.06151e-08, No Iterations 118
time step continuity errors : sum local = 2.33114e-12, global = -5.32562e-14, cumulative = 9.65843e-12
ExecutionTime = 10.4 s  ClockTime = 14 s

forces forces write:
    sum of forces:
        pressure : (0.119643 0.182589 -2.49545e-19)
        viscous  : (0.24538 -0.0242631 2.04845e-20)
        porous   : (0 0 0)
    sum of moments:
        pressure : (-2.07233e-19 -6.79664e-20 -0.323795)
        viscous  : (6.47334e-20 -1.76856e-19 -0.00846761)
        porous   : (0 0 0)

forceCoeffs forceCoeffs write:
    Cm    = 0
    Cd    = 0
    Cl    = 0
    Cl(f) = 0
    Cl(r) = 0

Time = 0.62

Courant Number mean: 0.12605 max: 0.478847
smoothSolver:  Solving for Ux, Initial residual = 0.00179763, Final residual = 4.13572e-08, No Iterations 3
smoothSolver:  Solving for Uy, Initial residual = 0.00180945, Final residual = 6.92211e-08, No Iterations 3
DICPCG:  Solving for p, Initial residual = 0.00376519, Final residual = 7.99466e-08, No Iterations 127
time step continuity errors : sum local = 2.31282e-12, global = -9.78218e-15, cumulative = 9.64865e-12
DICPCG:  Solving for p, Initial residual = 0.000600069, Final residual = 7.99749e-08, No Iterations 118
time step continuity errors : sum local = 2.29504e-12, global = -4.1703e-14, cumulative = 9.60695e-12
ExecutionTime = 10.55 s  ClockTime = 14 s

forces forces write:
    sum of forces:
        pressure : (0.11915 0.182469 -2.4949e-19)
        viscous  : (0.24353 -0.0240769 2.07987e-20)
        porous   : (0 0 0)
    sum of moments:
        pressure : (-2.06717e-19 -6.75219e-20 -0.323705)
        viscous  : (6.45062e-20 -1.76439e-19 -0.0084645)
        porous   : (0 0 0)

forceCoeffs forceCoeffs write:
    Cm    = 0
    Cd    = 0
    Cl    = 0
    Cl(f) = 0
    Cl(r) = 0

Time = 0.63

Courant Number mean: 0.126053 max: 0.478666
smoothSolver:  Solving for Ux, Initial residual = 0.00177891, Final residual = 4.06099e-08, No Iterations 3
smoothSolver:  Solving for Uy, Initial residual = 0.00179604, Final residual = 6.82803e-08, No Iterations 3
DICPCG:  Solving for p, Initial residual = 0.00437528, Final residual = 8.45859e-08, No Iterations 127
time step continuity errors : sum local = 2.42766e-12, global = -2.7405e-14, cumulative = 9.57954e-12
DICPCG:  Solving for p, Initial residual = 0.000653857, Final residual = 7.71828e-08, No Iterations 118
time step continuity errors : sum local = 2.19697e-12, global = -4.90802e-14, cumulative = 9.53046e-12
ExecutionTime = 10.69 s  ClockTime = 14 s

forces forces write:
    sum of forces:
        pressure : (0.118703 0.182417 -2.49467e-19)
        viscous  : (0.241727 -0.0238948 2.11518e-20)
        porous   : (0 0 0)
    sum of moments:
        pressure : (-2.06251e-19 -6.70875e-20 -0.323549)
        viscous  : (6.43005e-20 -1.76103e-19 -0.00846106)
        porous   : (0 0 0)

forceCoeffs forceCoeffs write:
    Cm    = 0
    Cd    = 0
    Cl    = 0
    Cl(f) = 0
    Cl(r) = 0

Time = 0.64

Courant Number mean: 0.126056 max: 0.478488
smoothSolver:  Solving for Ux, Initial residual = 0.00176074, Final residual = 3.98858e-08, No Iterations 3
smoothSolver:  Solving for Uy, Initial residual = 0.00178263, Final residual = 6.73778e-08, No Iterations 3
DICPCG:  Solving for p, Initial residual = 0.00396671, Final residual = 8.98493e-08, No Iterations 127
time step continuity errors : sum local = 2.55904e-12, global = -2.04361e-14, cumulative = 9.51002e-12
DICPCG:  Solving for p, Initial residual = 0.000610888, Final residual = 9.53035e-08, No Iterations 117
time step continuity errors : sum local = 2.69365e-12, global = -3.92824e-14, cumulative = 9.47074e-12
ExecutionTime = 10.83 s  ClockTime = 14 s

forces forces write:
    sum of forces:
        pressure : (0.11821 0.182291 -2.49375e-19)
        viscous  : (0.239967 -0.023717 2.14103e-20)
        porous   : (0 0 0)
    sum of moments:
        pressure : (-2.05722e-19 -6.67052e-20 -0.323545)
        viscous  : (6.40706e-20 -1.75668e-19 -0.00845729)
        porous   : (0 0 0)

forceCoeffs forceCoeffs write:
    Cm    = 0
    Cd    = 0
    Cl    = 0
    Cl(f) = 0
    Cl(r) = 0

Time = 0.65

Courant Number mean: 0.126059 max: 0.478312
smoothSolver:  Solving for Ux, Initial residual = 0.00174292, Final residual = 3.91722e-08, No Iterations 3
smoothSolver:  Solving for Uy, Initial residual = 0.0017695, Final residual = 6.64782e-08, No Iterations 3
DICPCG:  Solving for p, Initial residual = 0.00376795, Final residual = 8.24984e-08, No Iterations 127
time step continuity errors : sum local = 2.33205e-12, global = -2.40413e-14, cumulative = 9.4467e-12
DICPCG:  Solving for p, Initial residual = 0.000598575, Final residual = 8.06609e-08, No Iterations 118
time step continuity errors : sum local = 2.26214e-12, global = -5.4017e-14, cumulative = 9.39268e-12
ExecutionTime = 10.98 s  ClockTime = 14 s

forces forces write:
    sum of forces:
        pressure : (0.117774 0.182272 -2.49296e-19)
        viscous  : (0.238249 -0.0235431 2.17177e-20)
        porous   : (0 0 0)
    sum of moments:
        pressure : (-2.05266e-19 -6.6368e-20 -0.323397)
        viscous  : (6.38646e-20 -1.75343e-19 -0.00845332)
        porous   : (0 0 0)

forceCoeffs forceCoeffs write:
    Cm    = 0
    Cd    = 0
    Cl    = 0
    Cl(f) = 0
    Cl(r) = 0

Time = 0.66

Courant Number mean: 0.126062 max: 0.478138
smoothSolver:  Solving for Ux, Initial residual = 0.00172566, Final residual = 3.84829e-08, No Iterations 3
smoothSolver:  Solving for Uy, Initial residual = 0.00175657, Final residual = 6.56224e-08, No Iterations 3
DICPCG:  Solving for p, Initial residual = 0.00375235, Final residual = 8.36678e-08, No Iterations 127
time step continuity errors : sum local = 2.34738e-12, global = -2.49089e-14, cumulative = 9.36777e-12
DICPCG:  Solving for p, Initial residual = 0.000579589, Final residual = 7.9677e-08, No Iterations 118
time step continuity errors : sum local = 2.21854e-12, global = -4.74641e-14, cumulative = 9.32031e-12
ExecutionTime = 11.11 s  ClockTime = 15 s

forces forces write:
    sum of forces:
        pressure : (0.117335 0.182214 -2.49234e-19)
        viscous  : (0.236573 -0.0233731 2.1995e-20)
        porous   : (0 0 0)
    sum of moments:
        pressure : (-2.04802e-19 -6.60108e-20 -0.323324)
        viscous  : (6.36565e-20 -1.75006e-19 -0.0084489)
        porous   : (0 0 0)

forceCoeffs forceCoeffs write:
    Cm    = 0
    Cd    = 0
    Cl    = 0
    Cl(f) = 0
    Cl(r) = 0

Time = 0.67

Courant Number mean: 0.126066 max: 0.477967
smoothSolver:  Solving for Ux, Initial residual = 0.00170866, Final residual = 3.78126e-08, No Iterations 3
smoothSolver:  Solving for Uy, Initial residual = 0.0017442, Final residual = 6.48096e-08, No Iterations 3
DICPCG:  Solving for p, Initial residual = 0.00372958, Final residual = 8.83467e-08, No Iterations 126
time step continuity errors : sum local = 2.46119e-12, global = -2.43347e-14, cumulative = 9.29598e-12
DICPCG:  Solving for p, Initial residual = 0.000565558, Final residual = 7.99589e-08, No Iterations 118
time step continuity errors : sum local = 2.21139e-12, global = -4.7995e-14, cumulative = 9.24798e-12
ExecutionTime = 11.26 s  ClockTime = 15 s

forces forces write:
    sum of forces:
        pressure : (0.116918 0.182207 -2.4916e-19)
        viscous  : (0.234935 -0.0232068 2.22722e-20)
        porous   : (0 0 0)
    sum of moments:
        pressure : (-2.04383e-19 -6.56835e-20 -0.323196)
        viscous  : (6.34607e-20 -1.74704e-19 -0.00844518)
        porous   : (0 0 0)

forceCoeffs forceCoeffs write:
    Cm    = 0
    Cd    = 0
    Cl    = 0
    Cl(f) = 0
[...]

forceCoeffs forceCoeffs write:
    Cm    = 0
    Cd    = 0
    Cl    = 0
    Cl(f) = 0
    Cl(r) = 0

Time = 9.84

Courant Number mean: 0.126963 max: 0.48915
smoothSolver:  Solving for Ux, Initial residual = 0.000122007, Final residual = 3.00354e-08, No Iterations 2
smoothSolver:  Solving for Uy, Initial residual = 0.000276065, Final residual = 9.15278e-08, No Iterations 2
DICPCG:  Solving for p, Initial residual = 0.000267044, Final residual = 7.67805e-08, No Iterations 115
time step continuity errors : sum local = 1.34351e-12, global = 2.31691e-14, cumulative = 7.9339e-12
DICPCG:  Solving for p, Initial residual = 7.4189e-05, Final residual = 9.21226e-08, No Iterations 110
time step continuity errors : sum local = 1.61035e-12, global = -3.76867e-14, cumulative = 7.89621e-12
ExecutionTime = 131.1 s  ClockTime = 135 s

forces forces write:
    sum of forces:
        pressure : (0.10641 0.178709 -1.81998e-19)
        viscous  : (0.112423 -0.00842452 1.08218e-20)
        porous   : (0 0 0)
    sum of moments:
        pressure : (-1.44132e-19 -1.20086e-19 -0.337656)
        viscous  : (3.75971e-20 -1.83483e-19 -0.000318946)
        porous   : (0 0 0)

forceCoeffs forceCoeffs write:
    Cm    = 0
    Cd    = 0
    Cl    = 0
    Cl(f) = 0
    Cl(r) = 0

Time = 9.85

Courant Number mean: 0.126962 max: 0.489118
smoothSolver:  Solving for Ux, Initial residual = 0.000121849, Final residual = 3.00153e-08, No Iterations 2
smoothSolver:  Solving for Uy, Initial residual = 0.000275938, Final residual = 9.15564e-08, No Iterations 2
DICPCG:  Solving for p, Initial residual = 0.000287676, Final residual = 7.72241e-08, No Iterations 115
time step continuity errors : sum local = 1.35e-12, global = 2.3373e-14, cumulative = 7.91959e-12
DICPCG:  Solving for p, Initial residual = 7.64748e-05, Final residual = 9.46498e-08, No Iterations 110
time step continuity errors : sum local = 1.65292e-12, global = -3.8092e-14, cumulative = 7.88149e-12
ExecutionTime = 131.22 s  ClockTime = 135 s

forces forces write:
    sum of forces:
        pressure : (0.106388 0.178564 -1.8194e-19)
        viscous  : (0.112426 -0.00842899 1.07757e-20)
        porous   : (0 0 0)
    sum of moments:
        pressure : (-1.44051e-19 -1.20072e-19 -0.337644)
        viscous  : (3.75761e-20 -1.83416e-19 -0.000312994)
        porous   : (0 0 0)

forceCoeffs forceCoeffs write:
    Cm    = 0
    Cd    = 0
    Cl    = 0
    Cl(f) = 0
    Cl(r) = 0

Time = 9.86

Courant Number mean: 0.126961 max: 0.489085
smoothSolver:  Solving for Ux, Initial residual = 0.000121695, Final residual = 2.99946e-08, No Iterations 2
smoothSolver:  Solving for Uy, Initial residual = 0.000275815, Final residual = 9.15766e-08, No Iterations 2
DICPCG:  Solving for p, Initial residual = 0.000284639, Final residual = 7.93189e-08, No Iterations 115
time step continuity errors : sum local = 1.38528e-12, global = 2.27952e-14, cumulative = 7.90429e-12
DICPCG:  Solving for p, Initial residual = 7.46383e-05, Final residual = 9.11895e-08, No Iterations 110
time step continuity errors : sum local = 1.59099e-12, global = -3.70553e-14, cumulative = 7.86723e-12
ExecutionTime = 131.35 s  ClockTime = 135 s

forces forces write:
    sum of forces:
        pressure : (0.106367 0.17842 -1.81882e-19)
        viscous  : (0.112429 -0.00843342 1.07306e-20)
        porous   : (0 0 0)
    sum of moments:
        pressure : (-1.43971e-19 -1.20061e-19 -0.337632)
        viscous  : (3.75554e-20 -1.8335e-19 -0.000306936)
        porous   : (0 0 0)

forceCoeffs forceCoeffs write:
    Cm    = 0
    Cd    = 0
    Cl    = 0
    Cl(f) = 0
    Cl(r) = 0

Time = 9.87

Courant Number mean: 0.12696 max: 0.489053
smoothSolver:  Solving for Ux, Initial residual = 0.000121542, Final residual = 2.99746e-08, No Iterations 2
smoothSolver:  Solving for Uy, Initial residual = 0.000275684, Final residual = 9.15988e-08, No Iterations 2
DICPCG:  Solving for p, Initial residual = 0.000283328, Final residual = 7.89898e-08, No Iterations 115
time step continuity errors : sum local = 1.37823e-12, global = 2.34193e-14, cumulative = 7.89065e-12
DICPCG:  Solving for p, Initial residual = 7.49081e-05, Final residual = 8.97788e-08, No Iterations 110
time step continuity errors : sum local = 1.5649e-12, global = -3.78752e-14, cumulative = 7.85278e-12
ExecutionTime = 131.47 s  ClockTime = 135 s

forces forces write:
    sum of forces:
        pressure : (0.106347 0.178277 -1.81825e-19)
        viscous  : (0.112432 -0.00843785 1.06857e-20)
        porous   : (0 0 0)
    sum of moments:
        pressure : (-1.43891e-19 -1.20049e-19 -0.337618)
        viscous  : (3.75346e-20 -1.83284e-19 -0.000300886)
        porous   : (0 0 0)

forceCoeffs forceCoeffs write:
    Cm    = 0
    Cd    = 0
    Cl    = 0
    Cl(f) = 0
    Cl(r) = 0

Time = 9.88

Courant Number mean: 0.126959 max: 0.48902
smoothSolver:  Solving for Ux, Initial residual = 0.000121389, Final residual = 2.99532e-08, No Iterations 2
smoothSolver:  Solving for Uy, Initial residual = 0.000275561, Final residual = 9.16302e-08, No Iterations 2
DICPCG:  Solving for p, Initial residual = 0.00027909, Final residual = 7.8343e-08, No Iterations 115
time step continuity errors : sum local = 1.36566e-12, global = 2.27153e-14, cumulative = 7.87549e-12
DICPCG:  Solving for p, Initial residual = 7.44454e-05, Final residual = 9.83835e-08, No Iterations 109
time step continuity errors : sum local = 1.71327e-12, global = -5.61596e-14, cumulative = 7.81933e-12
ExecutionTime = 131.59 s  ClockTime = 135 s

forces forces write:
    sum of forces:
        pressure : (0.106326 0.178133 -1.81767e-19)
        viscous  : (0.112435 -0.00844228 1.06407e-20)
        porous   : (0 0 0)
    sum of moments:
        pressure : (-1.43811e-19 -1.20038e-19 -0.337605)
        viscous  : (3.75139e-20 -1.83218e-19 -0.000294846)
        porous   : (0 0 0)

forceCoeffs forceCoeffs write:
    Cm    = 0
    Cd    = 0
    Cl    = 0
    Cl(f) = 0
    Cl(r) = 0

Time = 9.89

Courant Number mean: 0.126958 max: 0.488987
smoothSolver:  Solving for Ux, Initial residual = 0.000121236, Final residual = 2.99329e-08, No Iterations 2
smoothSolver:  Solving for Uy, Initial residual = 0.000275438, Final residual = 9.16558e-08, No Iterations 2
DICPCG:  Solving for p, Initial residual = 0.000291228, Final residual = 8.1019e-08, No Iterations 115
time step continuity errors : sum local = 1.41099e-12, global = 2.23282e-14, cumulative = 7.84166e-12
DICPCG:  Solving for p, Initial residual = 7.52939e-05, Final residual = 9.12531e-08, No Iterations 110
time step continuity errors : sum local = 1.58763e-12, global = -3.83561e-14, cumulative = 7.80331e-12
ExecutionTime = 131.72 s  ClockTime = 135 s

forces forces write:
    sum of forces:
        pressure : (0.106305 0.17799 -1.8171e-19)
        viscous  : (0.112438 -0.00844672 1.05958e-20)
        porous   : (0 0 0)
    sum of moments:
        pressure : (-1.43732e-19 -1.20025e-19 -0.337592)
        viscous  : (3.74933e-20 -1.83153e-19 -0.000288818)
        porous   : (0 0 0)

forceCoeffs forceCoeffs write:
    Cm    = 0
    Cd    = 0
    Cl    = 0
    Cl(f) = 0
    Cl(r) = 0

Time = 9.9

Courant Number mean: 0.126957 max: 0.488955
smoothSolver:  Solving for Ux, Initial residual = 0.000121085, Final residual = 2.99134e-08, No Iterations 2
smoothSolver:  Solving for Uy, Initial residual = 0.000275311, Final residual = 9.16757e-08, No Iterations 2
DICPCG:  Solving for p, Initial residual = 0.000282479, Final residual = 7.98035e-08, No Iterations 115
time step continuity errors : sum local = 1.38852e-12, global = 2.21548e-14, cumulative = 7.82546e-12
DICPCG:  Solving for p, Initial residual = 7.49585e-05, Final residual = 9.03751e-08, No Iterations 110
time step continuity errors : sum local = 1.57087e-12, global = -3.82117e-14, cumulative = 7.78725e-12
ExecutionTime = 131.85 s  ClockTime = 136 s

forces forces write:
    sum of forces:
        pressure : (0.106284 0.177848 -1.81652e-19)
        viscous  : (0.112441 -0.00845116 1.05508e-20)
        porous   : (0 0 0)
    sum of moments:
        pressure : (-1.43652e-19 -1.20013e-19 -0.337578)
        viscous  : (3.74728e-20 -1.83087e-19 -0.000282804)
        porous   : (0 0 0)

forceCoeffs forceCoeffs write:
    Cm    = 0
    Cd    = 0
    Cl    = 0
    Cl(f) = 0
    Cl(r) = 0

Time = 9.91

Courant Number mean: 0.126956 max: 0.488922
smoothSolver:  Solving for Ux, Initial residual = 0.000120935, Final residual = 2.98941e-08, No Iterations 2
smoothSolver:  Solving for Uy, Initial residual = 0.000275179, Final residual = 9.16927e-08, No Iterations 2
DICPCG:  Solving for p, Initial residual = 0.000299872, Final residual = 8.0819e-08, No Iterations 115
time step continuity errors : sum local = 1.40485e-12, global = 2.29313e-14, cumulative = 7.81018e-12
DICPCG:  Solving for p, Initial residual = 7.61094e-05, Final residual = 8.96205e-08, No Iterations 110
time step continuity errors : sum local = 1.55626e-12, global = -3.9356e-14, cumulative = 7.77082e-12
ExecutionTime = 131.97 s  ClockTime = 136 s

forces forces write:
    sum of forces:
        pressure : (0.106264 0.177706 -1.81595e-19)
        viscous  : (0.112444 -0.0084556 1.05062e-20)
        porous   : (0 0 0)
    sum of moments:
        pressure : (-1.43573e-19 -1.20001e-19 -0.337564)
        viscous  : (3.74522e-20 -1.83022e-19 -0.000276795)
        porous   : (0 0 0)

forceCoeffs forceCoeffs write:
    Cm    = 0
    Cd    = 0
    Cl    = 0
    Cl(f) = 0
    Cl(r) = 0

Time = 9.92

Courant Number mean: 0.126955 max: 0.488889
smoothSolver:  Solving for Ux, Initial residual = 0.000120785, Final residual = 2.9873e-08, No Iterations 2
smoothSolver:  Solving for Uy, Initial residual = 0.000275047, Final residual = 9.17122e-08, No Iterations 2
DICPCG:  Solving for p, Initial residual = 0.000288521, Final residual = 7.98965e-08, No Iterations 115
time step continuity errors : sum local = 1.3875e-12, global = 2.26333e-14, cumulative = 7.79346e-12
DICPCG:  Solving for p, Initial residual = 7.53982e-05, Final residual = 9.10672e-08, No Iterations 110
time step continuity errors : sum local = 1.57991e-12, global = -3.76875e-14, cumulative = 7.75577e-12
ExecutionTime = 132.09 s  ClockTime = 136 s

forces forces write:
    sum of forces:
        pressure : (0.106243 0.177563 -1.81538e-19)
        viscous  : (0.112447 -0.00846003 1.04612e-20)
        porous   : (0 0 0)
    sum of moments:
        pressure : (-1.43494e-19 -1.19988e-19 -0.337551)
        viscous  : (3.74317e-20 -1.82956e-19 -0.000270785)
        porous   : (0 0 0)

forceCoeffs forceCoeffs write:
    Cm    = 0
    Cd    = 0
    Cl    = 0
    Cl(f) = 0
    Cl(r) = 0

Time = 9.93

Courant Number mean: 0.126955 max: 0.488857
smoothSolver:  Solving for Ux, Initial residual = 0.000120637, Final residual = 2.98527e-08, No Iterations 2
smoothSolver:  Solving for Uy, Initial residual = 0.000274915, Final residual = 9.17321e-08, No Iterations 2
DICPCG:  Solving for p, Initial residual = 0.0002754, Final residual = 7.85559e-08, No Iterations 115
time step continuity errors : sum local = 1.36294e-12, global = 2.35744e-14, cumulative = 7.77934e-12
DICPCG:  Solving for p, Initial residual = 7.46608e-05, Final residual = 8.96632e-08, No Iterations 110
time step continuity errors : sum local = 1.55416e-12, global = -3.83908e-14, cumulative = 7.74095e-12
ExecutionTime = 132.22 s  ClockTime = 136 s

forces forces write:
    sum of forces:
        pressure : (0.106222 0.17742 -1.81481e-19)
        viscous  : (0.11245 -0.00846448 1.04164e-20)
        porous   : (0 0 0)
    sum of moments:
        pressure : (-1.43414e-19 -1.19976e-19 -0.337536)
        viscous  : (3.74111e-20 -1.82891e-19 -0.000264791)
        porous   : (0 0 0)

forceCoeffs forceCoeffs write:
    Cm    = 0
    Cd    = 0
    Cl    = 0
    Cl(f) = 0
    Cl(r) = 0

Time = 9.94

Courant Number mean: 0.126954 max: 0.488824
smoothSolver:  Solving for Ux, Initial residual = 0.000120487, Final residual = 2.98316e-08, No Iterations 2
smoothSolver:  Solving for Uy, Initial residual = 0.000274799, Final residual = 9.17538e-08, No Iterations 2
DICPCG:  Solving for p, Initial residual = 0.000269329, Final residual = 7.79088e-08, No Iterations 115
time step continuity errors : sum local = 1.35049e-12, global = 2.29895e-14, cumulative = 7.76394e-12
DICPCG:  Solving for p, Initial residual = 7.45221e-05, Final residual = 8.95936e-08, No Iterations 110
time step continuity errors : sum local = 1.55159e-12, global = -3.82062e-14, cumulative = 7.72574e-12
ExecutionTime = 132.34 s  ClockTime = 136 s

forces forces write:
    sum of forces:
        pressure : (0.106202 0.177277 -1.81424e-19)
        viscous  : (0.112453 -0.00846892 1.03716e-20)
        porous   : (0 0 0)
    sum of moments:
        pressure : (-1.43335e-19 -1.19963e-19 -0.337522)
        viscous  : (3.73907e-20 -1.82825e-19 -0.00025881)
        porous   : (0 0 0)

forceCoeffs forceCoeffs write:
    Cm    = 0
    Cd    = 0
    Cl    = 0
    Cl(f) = 0
    Cl(r) = 0

Time = 9.95

Courant Number mean: 0.126953 max: 0.488791
smoothSolver:  Solving for Ux, Initial residual = 0.00012034, Final residual = 2.98104e-08, No Iterations 2
smoothSolver:  Solving for Uy, Initial residual = 0.00027469, Final residual = 9.17712e-08, No Iterations 2
DICPCG:  Solving for p, Initial residual = 0.000270578, Final residual = 7.80133e-08, No Iterations 115
time step continuity errors : sum local = 1.35111e-12, global = 2.31456e-14, cumulative = 7.74888e-12
DICPCG:  Solving for p, Initial residual = 7.44188e-05, Final residual = 9.91893e-08, No Iterations 108
time step continuity errors : sum local = 1.71629e-12, global = -7.41458e-14, cumulative = 7.67474e-12
ExecutionTime = 132.46 s  ClockTime = 136 s

forces forces write:
    sum of forces:
        pressure : (0.106181 0.177135 -1.81367e-19)
        viscous  : (0.112456 -0.00847337 1.03269e-20)
        porous   : (0 0 0)
    sum of moments:
        pressure : (-1.43255e-19 -1.1995e-19 -0.337507)
        viscous  : (3.73702e-20 -1.82759e-19 -0.000252848)
        porous   : (0 0 0)

forceCoeffs forceCoeffs write:
    Cm    = 0
    Cd    = 0
    Cl    = 0
    Cl(f) = 0
    Cl(r) = 0

Time = 9.96

Courant Number mean: 0.126952 max: 0.488758
smoothSolver:  Solving for Ux, Initial residual = 0.000120195, Final residual = 2.97887e-08, No Iterations 2
smoothSolver:  Solving for Uy, Initial residual = 0.000274586, Final residual = 9.17885e-08, No Iterations 2
DICPCG:  Solving for p, Initial residual = 0.0002696, Final residual = 7.8058e-08, No Iterations 115
time step continuity errors : sum local = 1.35072e-12, global = 2.30309e-14, cumulative = 7.69777e-12
DICPCG:  Solving for p, Initial residual = 7.45259e-05, Final residual = 9.94092e-08, No Iterations 108
time step continuity errors : sum local = 1.71868e-12, global = -7.41144e-14, cumulative = 7.62365e-12
ExecutionTime = 132.59 s  ClockTime = 136 s

forces forces write:
    sum of forces:
        pressure : (0.10616 0.176993 -1.81309e-19)
        viscous  : (0.112459 -0.00847782 1.02823e-20)
        porous   : (0 0 0)
    sum of moments:
        pressure : (-1.43176e-19 -1.19938e-19 -0.337493)
        viscous  : (3.73499e-20 -1.82694e-19 -0.000246902)
        porous   : (0 0 0)

forceCoeffs forceCoeffs write:
    Cm    = 0
    Cd    = 0
    Cl    = 0
    Cl(f) = 0
    Cl(r) = 0

Time = 9.97

Courant Number mean: 0.126951 max: 0.488725
smoothSolver:  Solving for Ux, Initial residual = 0.00012005, Final residual = 2.97669e-08, No Iterations 2
smoothSolver:  Solving for Uy, Initial residual = 0.000274487, Final residual = 9.18072e-08, No Iterations 2
DICPCG:  Solving for p, Initial residual = 0.000270288, Final residual = 7.81369e-08, No Iterations 115
time step continuity errors : sum local = 1.35096e-12, global = 2.30656e-14, cumulative = 7.64672e-12
DICPCG:  Solving for p, Initial residual = 7.45214e-05, Final residual = 9.91817e-08, No Iterations 108
time step continuity errors : sum local = 1.71334e-12, global = -7.43687e-14, cumulative = 7.57235e-12
ExecutionTime = 132.71 s  ClockTime = 136 s

forces forces write:
    sum of forces:
        pressure : (0.10614 0.176851 -1.81253e-19)
        viscous  : (0.112462 -0.00848227 1.02377e-20)
        porous   : (0 0 0)
    sum of moments:
        pressure : (-1.43097e-19 -1.19925e-19 -0.337478)
        viscous  : (3.73295e-20 -1.82628e-19 -0.000240974)
        porous   : (0 0 0)

forceCoeffs forceCoeffs write:
    Cm    = 0
    Cd    = 0
    Cl    = 0
    Cl(f) = 0
    Cl(r) = 0

Time = 9.98

Courant Number mean: 0.12695 max: 0.488692
smoothSolver:  Solving for Ux, Initial residual = 0.000119906, Final residual = 2.9745e-08, No Iterations 2
smoothSolver:  Solving for Uy, Initial residual = 0.000274389, Final residual = 9.18292e-08, No Iterations 2
DICPCG:  Solving for p, Initial residual = 0.000271323, Final residual = 7.82953e-08, No Iterations 115
time step continuity errors : sum local = 1.35258e-12, global = 2.30474e-14, cumulative = 7.5954e-12
DICPCG:  Solving for p, Initial residual = 7.45875e-05, Final residual = 9.43547e-08, No Iterations 109
time step continuity errors : sum local = 1.62861e-12, global = -5.32229e-14, cumulative = 7.54218e-12
ExecutionTime = 132.83 s  ClockTime = 137 s

forces forces write:
    sum of forces:
        pressure : (0.106119 0.176709 -1.81196e-19)
        viscous  : (0.112465 -0.00848674 1.01931e-20)
        porous   : (0 0 0)
    sum of moments:
        pressure : (-1.43019e-19 -1.19913e-19 -0.337462)
        viscous  : (3.73092e-20 -1.82563e-19 -0.000235096)
        porous   : (0 0 0)

forceCoeffs forceCoeffs write:
    Cm    = 0
    Cd    = 0
    Cl    = 0
    Cl(f) = 0
    Cl(r) = 0

Time = 9.99

Courant Number mean: 0.126949 max: 0.488659
smoothSolver:  Solving for Ux, Initial residual = 0.000119762, Final residual = 2.9723e-08, No Iterations 2
smoothSolver:  Solving for Uy, Initial residual = 0.00027429, Final residual = 9.18502e-08, No Iterations 2
DICPCG:  Solving for p, Initial residual = 0.00027105, Final residual = 7.83292e-08, No Iterations 115
time step continuity errors : sum local = 1.35205e-12, global = 2.30252e-14, cumulative = 7.5652e-12
DICPCG:  Solving for p, Initial residual = 7.46778e-05, Final residual = 9.41779e-08, No Iterations 109
time step continuity errors : sum local = 1.62422e-12, global = -5.30684e-14, cumulative = 7.51213e-12
ExecutionTime = 132.96 s  ClockTime = 137 s

forces forces write:
    sum of forces:
        pressure : (0.106099 0.176567 -1.81139e-19)
        viscous  : (0.112468 -0.00849122 1.01486e-20)
        porous   : (0 0 0)
    sum of moments:
        pressure : (-1.4294e-19 -1.199e-19 -0.337447)
        viscous  : (3.7289e-20 -1.82497e-19 -0.000229233)
        porous   : (0 0 0)

forceCoeffs forceCoeffs write:
    Cm    = 0
    Cd    = 0
    Cl    = 0
    Cl(f) = 0
    Cl(r) = 0

Time = 10

Courant Number mean: 0.126948 max: 0.488626
smoothSolver:  Solving for Ux, Initial residual = 0.000119618, Final residual = 2.97009e-08, No Iterations 2
smoothSolver:  Solving for Uy, Initial residual = 0.000274187, Final residual = 9.18697e-08, No Iterations 2
DICPCG:  Solving for p, Initial residual = 0.000272195, Final residual = 7.84557e-08, No Iterations 115
time step continuity errors : sum local = 1.35312e-12, global = 2.30364e-14, cumulative = 7.53517e-12
DICPCG:  Solving for p, Initial residual = 7.47425e-05, Final residual = 8.81514e-08, No Iterations 110
time step continuity errors : sum local = 1.51909e-12, global = -3.88634e-14, cumulative = 7.4963e-12
ExecutionTime = 133.26 s  ClockTime = 137 s

forces forces write:
    sum of forces:
        pressure : (0.106078 0.176426 -1.81082e-19)
        viscous  : (0.112471 -0.0084957 1.01041e-20)
        porous   : (0 0 0)
    sum of moments:
        pressure : (-1.42861e-19 -1.19887e-19 -0.337431)
        viscous  : (3.72689e-20 -1.82432e-19 -0.000223395)
        porous   : (0 0 0)

forceCoeffs forceCoeffs write:
    Cm    = 0
    Cd    = 0
    Cl    = 0
    Cl(f) = 0
    Cl(r) = 0

End

