/*---------------------------------------------------------------------------*\
  =========                 |
  \\      /  F ield         | OpenFOAM: The Open Source CFD Toolbox
   \\    /   O peration     | Website:  https://openfoam.org
    \\  /    A nd           | Version:  7
     \\/     M anipulation  |
\*---------------------------------------------------------------------------*/
Build  : 7-49b2b3b8b082
Exec   : reconstructPar
Date   : May 13 2022
Time   : 02:10:53
Host   : "c407-054.stampede2.tacc.utexas.edu"
PID    : 48441
I/O    : uncollated
Case   : /work2/07674/bradenp/stampede2/diamond-airfoil/simulations/theta-beta-m/mach4/alpha-20
nProcs : 1
sigFpe : Enabling floating point exception trapping (FOAM_SIGFPE).
fileModificationChecking : Monitoring run-time modified files using timeStampMaster (fileModificationSkew 10)
allowSystemOperations : Allowing user-supplied system call operations

// * * * * * * * * * * * * * * * * * * * * * * * * * * * * * * * * * * * * * //
Create time



Reconstructing fields for mesh region0

Time = 0.5

Reconstructing FV fields

    Reconstructing volScalarFields

        T
        p
        rho

    Reconstructing volVectorFields

        U

Reconstructing point fields

No point fields

No lagrangian fields

Time = 1

Reconstructing FV fields

    Reconstructing volScalarFields

        T
        p
        rho

    Reconstructing volVectorFields

        U

Reconstructing point fields

No point fields

No lagrangian fields

Time = 1.5

Reconstructing FV fields

    Reconstructing volScalarFields

        T
        p
        rho

    Reconstructing volVectorFields

        U

Reconstructing point fields

No point fields

No lagrangian fields

Time = 2

Reconstructing FV fields

    Reconstructing volScalarFields

        T
        p
        rho

    Reconstructing volVectorFields

        U

Reconstructing point fields

No point fields

No lagrangian fields

Time = 2.5

Reconstructing FV fields

    Reconstructing volScalarFields

        T
        p
        rho

    Reconstructing volVectorFields

        U

Reconstructing point fields

No point fields

No lagrangian fields

Time = 3

Reconstructing FV fields

    Reconstructing volScalarFields

        T
        p
        rho

    Reconstructing volVectorFields

        U

Reconstructing point fields

No point fields

No lagrangian fields

Time = 3.5

Reconstructing FV fields

    Reconstructing volScalarFields

        T
        p
        rho

    Reconstructing volVectorFields

        U

Reconstructing point fields

No point fields

No lagrangian fields

Time = 4

Reconstructing FV fields

    Reconstructing volScalarFields

        T
        p
        rho

    Reconstructing volVectorFields

        U

Reconstructing point fields

No point fields

No lagrangian fields

Time = 4.5

Reconstructing FV fields

    Reconstructing volScalarFields

        T
        p
        rho

    Reconstructing volVectorFields

        U

Reconstructing point fields

No point fields

No lagrangian fields

Time = 5

Reconstructing FV fields

    Reconstructing volScalarFields

        T
        p
        rho

    Reconstructing volVectorFields

        U

Reconstructing point fields

No point fields

No lagrangian fields

Time = 5.5

Reconstructing FV fields

    Reconstructing volScalarFields

        T
        p
        rho

    Reconstructing volVectorFields

        U

Reconstructing point fields

No point fields

No lagrangian fields

Time = 6

Reconstructing FV fields

    Reconstructing volScalarFields

        T
        p
        rho

    Reconstructing volVectorFields

        U

Reconstructing point fields

No point fields

No lagrangian fields

Time = 6.5

Reconstructing FV fields

    Reconstructing volScalarFields

        T
        p
        rho

    Reconstructing volVectorFields

        U

Reconstructing point fields

No point fields

No lagrangian fields

Time = 7

Reconstructing FV fields

    Reconstructing volScalarFields

        T
        p
        rho

    Reconstructing volVectorFields

        U

Reconstructing point fields

No point fields

No lagrangian fields

Time = 7.5

Reconstructing FV fields

    Reconstructing volScalarFields

        T
        p
        rho

    Reconstructing volVectorFields

        U

Reconstructing point fields

No point fields

No lagrangian fields

Time = 8

Reconstructing FV fields

    Reconstructing volScalarFields

        T
        p
        rho

    Reconstructing volVectorFields

        U

Reconstructing point fields

No point fields

No lagrangian fields

Time = 8.5

Reconstructing FV fields

    Reconstructing volScalarFields

        T
        p
        rho

    Reconstructing volVectorFields

        U

Reconstructing point fields

No point fields

No lagrangian fields

Time = 9

Reconstructing FV fields

    Reconstructing volScalarFields

        T
        p
        rho

    Reconstructing volVectorFields

        U

Reconstructing point fields

No point fields

No lagrangian fields

Time = 9.5

Reconstructing FV fields

    Reconstructing volScalarFields

        T
        p
        rho

    Reconstructing volVectorFields

        U

Reconstructing point fields

No point fields

No lagrangian fields

Time = 10

Reconstructing FV fields

    Reconstructing volScalarFields

        T
        p
        rho

    Reconstructing volVectorFields

        U

Reconstructing point fields

No point fields

No lagrangian fields


End

